
  Mrv2220 08292413012D          

 12 13  0  0  0  0            999 V2000
    0.8838   -2.1500    0.0000 O   0  0  0  0  0  0  0  0  0  0  0  0
    1.1387   -1.3654    0.0000 C   0  0  0  0  0  0  0  0  0  0  0  0
    0.6538   -0.6979    0.0000 N   0  0  0  0  0  0  0  0  0  0  0  0
    1.1387   -0.0305    0.0000 S   0  0  0  0  0  0  0  0  0  0  0  0
    0.4243    0.3820    0.0000 O   0  0  0  0  0  0  0  0  0  0  0  0
    1.4743    0.7232    0.0000 O   0  0  0  0  0  0  0  0  0  0  0  0
    1.9233   -0.2854    0.0000 C   0  0  0  0  0  0  0  0  0  0  0  0
    2.6378    0.1271    0.0000 C   0  0  0  0  0  0  0  0  0  0  0  0
    3.3523   -0.2854    0.0000 C   0  0  0  0  0  0  0  0  0  0  0  0
    3.3523   -1.1104    0.0000 C   0  0  0  0  0  0  0  0  0  0  0  0
    2.6378   -1.5229    0.0000 C   0  0  0  0  0  0  0  0  0  0  0  0
    1.9233   -1.1104    0.0000 C   0  0  0  0  0  0  0  0  0  0  0  0
  1  2  2  0  0  0  0
  2  3  1  0  0  0  0
  3  4  1  0  0  0  0
  4  5  2  0  0  0  0
  4  6  2  0  0  0  0
  4  7  1  0  0  0  0
  7  8  4  0  0  0  0
  8  9  4  0  0  0  0
  9 10  4  0  0  0  0
 10 11  4  0  0  0  0
 11 12  4  0  0  0  0
  7 12  4  0  0  0  0
  2 12  1  0  0  0  0
M  END
> <activity>
39.09582623

> <InChiKey>
CVHZOJJKTDOEJC-UHFFFAOYSA-N

$$$$

  Mrv2220 08292413012D          

 11 11  0  0  0  0            999 V2000
    0.7145    2.0625    0.0000 C   0  0  0  0  0  0  0  0  0  0  0  0
    0.7145    1.2375    0.0000 C   0  0  0  0  0  0  0  0  0  0  0  0
    1.4289    0.8250    0.0000 C   0  0  0  0  0  0  0  0  0  0  0  0
    1.4289   -0.0000    0.0000 C   0  0  0  0  0  0  0  0  0  0  0  0
    0.7145   -0.4125    0.0000 C   0  0  0  0  0  0  0  0  0  0  0  0
    0.7145   -1.2375    0.0000 C   0  0  0  0  0  0  0  0  0  0  0  0
    1.4289   -1.6500    0.0000 C   0  0  0  0  0  0  0  0  0  0  0  0
   -0.0000   -1.6500    0.0000 C   0  0  0  0  0  0  0  0  0  0  0  0
    0.0000    0.0000    0.0000 C   0  0  0  0  0  0  0  0  0  0  0  0
   -0.7145   -0.4125    0.0000 O   0  0  0  0  0  0  0  0  0  0  0  0
    0.0000    0.8250    0.0000 C   0  0  0  0  0  0  0  0  0  0  0  0
  1  2  1  0  0  0  0
  2  3  1  0  0  0  0
  3  4  1  0  0  0  0
  4  5  1  0  0  0  0
  5  6  1  0  0  0  0
  6  7  1  0  0  0  0
  6  8  1  0  0  0  0
  5  9  1  0  0  0  0
  9 10  1  0  0  0  0
  9 11  1  0  0  0  0
  2 11  1  0  0  0  0
M  END
> <activity>
15.128365590000001

> <InChiKey>
NOOLISFMXDJSKH-UHFFFAOYSA-N

$$$$

  Mrv2220 08292413012D          

 25 27  0  0  0  0            999 V2000
   -0.2455   -8.1484    0.0000 C   0  0  0  0  0  0  0  0  0  0  0  0
    0.4690   -7.7359    0.0000 C   0  0  0  0  0  0  0  0  0  0  0  0
    1.1834   -8.1484    0.0000 O   0  0  0  0  0  0  0  0  0  0  0  0
    1.8979   -7.7359    0.0000 C   0  0  0  0  0  0  0  0  0  0  0  0
    1.8979   -6.9109    0.0000 O   0  0  0  0  0  0  0  0  0  0  0  0
    2.6124   -8.1484    0.0000 C   0  0  0  0  0  0  0  0  0  0  0  0
    2.6124   -8.9734    0.0000 C   0  0  0  0  0  0  0  0  0  0  0  0
    3.3269   -7.7359    0.0000 O   0  0  0  0  0  0  0  0  0  0  0  0
    4.0413   -8.1484    0.0000 C   0  0  0  0  0  0  0  0  0  0  0  0
    4.7558   -7.7359    0.0000 C   0  0  0  0  0  0  0  0  0  0  0  0
    5.4703   -8.1484    0.0000 C   0  0  0  0  0  0  0  0  0  0  0  0
    5.4703   -8.9734    0.0000 C   0  0  0  0  0  0  0  0  0  0  0  0
    6.1847   -9.3859    0.0000 O   0  0  0  0  0  0  0  0  0  0  0  0
    6.8992   -8.9734    0.0000 C   0  0  0  0  0  0  0  0  0  0  0  0
    6.9855   -8.1530    0.0000 N   0  0  0  0  0  0  0  0  0  0  0  0
    7.7924   -7.9814    0.0000 C   0  0  0  0  0  0  0  0  0  0  0  0
    8.2049   -7.2670    0.0000 C   0  0  0  0  0  0  0  0  0  0  0  0
    9.0299   -7.2670    0.0000 C   0  0  0  0  0  0  0  0  0  0  0  0
    9.4424   -7.9814    0.0000 C   0  0  0  0  0  0  0  0  0  0  0  0
   10.2674   -7.9814    0.0000 Cl  0  0  0  0  0  0  0  0  0  0  0  0
    9.0299   -8.6959    0.0000 C   0  0  0  0  0  0  0  0  0  0  0  0
    8.2049   -8.6959    0.0000 C   0  0  0  0  0  0  0  0  0  0  0  0
    7.6529   -9.3090    0.0000 O   0  0  0  0  0  0  0  0  0  0  0  0
    4.7558   -9.3859    0.0000 C   0  0  0  0  0  0  0  0  0  0  0  0
    4.0413   -8.9734    0.0000 C   0  0  0  0  0  0  0  0  0  0  0  0
  1  2  1  0  0  0  0
  2  3  1  0  0  0  0
  3  4  1  0  0  0  0
  4  5  2  0  0  0  0
  4  6  1  0  0  0  0
  6  7  1  0  0  0  0
  6  8  1  0  0  0  0
  8  9  1  0  0  0  0
  9 10  4  0  0  0  0
 10 11  4  0  0  0  0
 11 12  4  0  0  0  0
 12 13  1  0  0  0  0
 13 14  1  0  0  0  0
 14 15  4  0  0  0  0
 15 16  4  0  0  0  0
 16 17  4  0  0  0  0
 17 18  4  0  0  0  0
 18 19  4  0  0  0  0
 19 20  1  0  0  0  0
 19 21  4  0  0  0  0
 21 22  4  0  0  0  0
 16 22  4  0  0  0  0
 22 23  4  0  0  0  0
 14 23  4  0  0  0  0
 12 24  4  0  0  0  0
 24 25  4  0  0  0  0
  9 25  4  0  0  0  0
M  END
> <activity>
72.723392385

> <InChiKey>
PQKBPHSEKWERTG-UHFFFAOYSA-N

$$$$

  Mrv2220 08292413012D          

 18 19  0  0  0  0            999 V2000
    2.2295   -0.7827    0.0000 C   0  0  0  0  0  0  0  0  0  0  0  0
    2.9440   -1.1952    0.0000 C   0  0  0  0  0  0  0  0  0  0  0  0
    2.9440   -2.0202    0.0000 C   0  0  0  0  0  0  0  0  0  0  0  0
    2.2295   -2.4327    0.0000 C   0  0  0  0  0  0  0  0  0  0  0  0
    3.6584   -2.4327    0.0000 C   0  0  0  0  0  0  0  0  0  0  0  0
    4.3729   -2.0202    0.0000 C   0  0  0  0  0  0  0  0  0  0  0  0
    4.3729   -1.1952    0.0000 O   0  0  0  0  0  0  0  0  0  0  0  0
    5.0874   -2.4327    0.0000 O   0  0  0  0  0  0  0  0  0  0  0  0
    3.6584   -3.2577    0.0000 N   0  0  0  0  0  0  0  0  0  0  0  0
    4.3259   -3.7426    0.0000 S   0  0  0  0  0  0  0  0  0  0  0  0
    4.0709   -4.5272    0.0000 C   0  0  0  0  0  0  0  0  0  0  0  0
    4.4834   -5.2417    0.0000 C   0  0  0  0  0  0  0  0  0  0  0  0
    4.0709   -5.9562    0.0000 C   0  0  0  0  0  0  0  0  0  0  0  0
    3.2459   -5.9562    0.0000 C   0  0  0  0  0  0  0  0  0  0  0  0
    2.8334   -5.2417    0.0000 C   0  0  0  0  0  0  0  0  0  0  0  0
    3.2459   -4.5272    0.0000 C   0  0  0  0  0  0  0  0  0  0  0  0
    2.9910   -3.7426    0.0000 C   0  0  0  0  0  0  0  0  0  0  0  0
    2.2064   -3.4877    0.0000 O   0  0  0  0  0  0  0  0  0  0  0  0
  1  2  1  0  0  0  0
  2  3  1  0  0  0  0
  3  4  1  0  0  0  0
  3  5  1  0  0  0  0
  5  6  1  0  0  0  0
  6  7  2  0  0  0  0
  6  8  1  0  0  0  0
  5  9  1  0  0  0  0
  9 10  4  0  0  0  0
 10 11  4  0  0  0  0
 11 12  4  0  0  0  0
 12 13  4  0  0  0  0
 13 14  4  0  0  0  0
 14 15  4  0  0  0  0
 15 16  4  0  0  0  0
 11 16  4  0  0  0  0
 16 17  4  0  0  0  0
  9 17  4  0  0  0  0
 17 18  2  0  0  0  0
M  END
> <activity>
13.58586716

> <InChiKey>
FUSYFEXGXRDJNB-UHFFFAOYSA-N

$$$$

  Mrv2220 08292413012D          

 21 20  0  0  0  0            999 V2000
   -4.1467    2.5559    0.0000 C   0  0  0  0  0  0  0  0  0  0  0  0
   -3.4322    2.1434    0.0000 C   0  0  0  0  0  0  0  0  0  0  0  0
   -2.7177    2.5559    0.0000 C   0  0  0  0  0  0  0  0  0  0  0  0
   -2.0033    2.1434    0.0000 C   0  0  0  0  0  0  0  0  0  0  0  0
   -1.2888    2.5559    0.0000 C   0  0  0  0  0  0  0  0  0  0  0  0
   -0.5743    2.1434    0.0000 C   0  0  0  0  0  0  0  0  0  0  0  0
    0.1401    2.5559    0.0000 C   0  0  0  0  0  0  0  0  0  0  0  0
    0.1401    3.3809    0.0000 O   0  0  0  0  0  0  0  0  0  0  0  0
    0.8546    2.1434    0.0000 C   0  0  0  0  0  0  0  0  0  0  0  0
    1.5691    2.5559    0.0000 C   0  0  0  0  0  0  0  0  0  0  0  0
    2.2836    2.1434    0.0000 C   0  0  0  0  0  0  0  0  0  0  0  0
    2.9980    2.5559    0.0000 C   0  0  0  0  0  0  0  0  0  0  0  0
    3.7125    2.1434    0.0000 C   0  0  0  0  0  0  0  0  0  0  0  0
    4.4270    2.5559    0.0000 C   0  0  0  0  0  0  0  0  0  0  0  0
    5.1414    2.1434    0.0000 C   0  0  0  0  0  0  0  0  0  0  0  0
    5.8559    2.5559    0.0000 C   0  0  0  0  0  0  0  0  0  0  0  0
    6.5704    2.1434    0.0000 C   0  0  0  0  0  0  0  0  0  0  0  0
    7.2849    2.5559    0.0000 C   0  0  0  0  0  0  0  0  0  0  0  0
    7.9993    2.1434    0.0000 C   0  0  0  0  0  0  0  0  0  0  0  0
    8.7138    2.5559    0.0000 O   0  0  0  0  0  0  0  0  0  0  0  0
    7.9993    1.3184    0.0000 O   0  0  0  0  0  0  0  0  0  0  0  0
  1  2  1  0  0  0  0
  2  3  1  0  0  0  0
  3  4  1  0  0  0  0
  4  5  1  0  0  0  0
  5  6  1  0  0  0  0
  6  7  1  0  0  0  0
  7  8  1  0  0  0  0
  7  9  1  0  0  0  0
 10  9  1  4  0  0  0
 10 11  2  0  0  0  0
 11 12  1  0  0  0  0
 12 13  1  0  0  0  0
 13 14  1  0  0  0  0
 14 15  1  0  0  0  0
 15 16  1  0  0  0  0
 16 17  1  0  0  0  0
 17 18  1  0  0  0  0
 18 19  1  0  0  0  0
 19 20  2  0  0  0  0
 19 21  1  0  0  0  0
M  END
> <activity>
88.58071115

> <InChiKey>
WBHHMMIMDMUBKC-UHFFFAOYSA-N

$$$$

  Mrv2220 08292413012D          

  4  3  0  0  0  0            999 V2000
    1.2375    0.7145    0.0000 Cl  0  0  0  0  0  0  0  0  0  0  0  0
    0.8250    0.0000    0.0000 C   0  0  0  0  0  0  0  0  0  0  0  0
    0.0000    0.0000    0.0000 C   0  0  0  0  0  0  0  0  0  0  0  0
   -0.4125   -0.7145    0.0000 Cl  0  0  0  0  0  0  0  0  0  0  0  0
  2  1  1  4  0  0  0
  2  3  2  0  0  0  0
  3  4  1  0  0  0  0
M  END
> <activity>
3.066264674

> <InChiKey>
KFUSEUYYWQURPO-UHFFFAOYSA-N

$$$$

  Mrv2220 08292413012D          

 12 12  0  0  0  0            999 V2000
    0.7145    2.0625    0.0000 N   0  0  0  0  0  0  0  0  0  0  0  0
    0.7145    1.2375    0.0000 C   0  0  0  0  0  0  0  0  0  0  0  0
    1.4289    0.8250    0.0000 C   0  0  0  0  0  0  0  0  0  0  0  0
    2.1434    1.2375    0.0000 Cl  0  0  0  0  0  0  0  0  0  0  0  0
    1.4289   -0.0000    0.0000 C   0  0  0  0  0  0  0  0  0  0  0  0
    0.7145   -0.4125    0.0000 C   0  0  0  0  0  0  0  0  0  0  0  0
    0.7145   -1.2375    0.0000 N   0  3  0  0  0  0  0  0  0  0  0  0
    1.4289   -1.6500    0.0000 O   0  0  0  0  0  0  0  0  0  0  0  0
   -0.0000   -1.6500    0.0000 O   0  5  0  0  0  0  0  0  0  0  0  0
    0.0000    0.0000    0.0000 C   0  0  0  0  0  0  0  0  0  0  0  0
    0.0000    0.8250    0.0000 C   0  0  0  0  0  0  0  0  0  0  0  0
   -0.7145    1.2375    0.0000 Cl  0  0  0  0  0  0  0  0  0  0  0  0
  1  2  1  0  0  0  0
  2  3  4  0  0  0  0
  3  4  1  0  0  0  0
  3  5  4  0  0  0  0
  5  6  4  0  0  0  0
  6  7  1  0  0  0  0
  7  8  2  0  0  0  0
  7  9  1  0  0  0  0
  6 10  4  0  0  0  0
 10 11  4  0  0  0  0
  2 11  4  0  0  0  0
 11 12  1  0  0  0  0
M  CHG  2   7   1   9  -1
M  END
> <activity>
99.77857893

> <InChiKey>
BIXZHMJUSMUDOQ-UHFFFAOYSA-N

$$$$

  Mrv2220 08292413012D          

  8  8  0  0  0  0            999 V2000
    0.7145    2.0625    0.0000 F   0  0  0  0  0  0  0  0  0  0  0  0
    0.7145    1.2375    0.0000 C   0  0  0  0  0  0  0  0  0  0  0  0
    1.4289    0.8250    0.0000 C   0  0  0  0  0  0  0  0  0  0  0  0
    1.4289   -0.0000    0.0000 C   0  0  0  0  0  0  0  0  0  0  0  0
    0.7145   -0.4125    0.0000 C   0  0  0  0  0  0  0  0  0  0  0  0
    0.7145   -1.2375    0.0000 Br  0  0  0  0  0  0  0  0  0  0  0  0
    0.0000    0.0000    0.0000 C   0  0  0  0  0  0  0  0  0  0  0  0
    0.0000    0.8250    0.0000 C   0  0  0  0  0  0  0  0  0  0  0  0
  1  2  1  0  0  0  0
  2  3  4  0  0  0  0
  3  4  4  0  0  0  0
  4  5  4  0  0  0  0
  5  6  1  0  0  0  0
  5  7  4  0  0  0  0
  7  8  4  0  0  0  0
  2  8  4  0  0  0  0
M  END
> <activity>
12.76293436

> <InChiKey>
AITNMTXHTIIIBB-UHFFFAOYSA-N

$$$$

  Mrv2220 08292413012D          

 16 15  0  0  0  0            999 V2000
    5.9961    4.2868    0.0000 C   0  0  0  0  0  0  0  0  0  0  0  0
    6.7105    4.6993    0.0000 C   0  0  0  0  0  0  0  0  0  0  0  0
    7.4250    4.2868    0.0000 C   0  0  0  0  0  0  0  0  0  0  0  0
    8.1395    4.6993    0.0000 C   0  0  0  0  0  0  0  0  0  0  0  0
    8.8539    4.2868    0.0000 C   0  0  0  0  0  0  0  0  0  0  0  0
    9.5684    4.6993    0.0000 C   0  0  0  0  0  0  0  0  0  0  0  0
   10.2829    4.2868    0.0000 C   0  0  0  0  0  0  0  0  0  0  0  0
   10.9974    4.6993    0.0000 C   0  0  0  0  0  0  0  0  0  0  0  0
   11.7118    4.2868    0.0000 C   0  0  0  0  0  0  0  0  0  0  0  0
   12.4263    4.6993    0.0000 C   0  0  0  0  0  0  0  0  0  0  0  0
   13.1408    4.2868    0.0000 C   0  0  0  0  0  0  0  0  0  0  0  0
   13.8552    4.6993    0.0000 C   0  0  0  0  0  0  0  0  0  0  0  0
   14.5697    4.2868    0.0000 C   0  0  0  0  0  0  0  0  0  0  0  0
   15.2842    4.6993    0.0000 C   0  0  0  0  0  0  0  0  0  0  0  0
   15.9987    4.2868    0.0000 C   0  0  0  0  0  0  0  0  0  0  0  0
   16.7131    4.6993    0.0000 O   0  0  0  0  0  0  0  0  0  0  0  0
  1  2  1  0  0  0  0
  2  3  1  0  0  0  0
  3  4  1  0  0  0  0
  4  5  1  0  0  0  0
  5  6  1  0  0  0  0
  6  7  1  0  0  0  0
  7  8  1  0  0  0  0
  8  9  1  0  0  0  0
  9 10  1  0  0  0  0
 10 11  1  0  0  0  0
 11 12  1  0  0  0  0
 12 13  1  0  0  0  0
 13 14  1  0  0  0  0
 14 15  1  0  0  0  0
 15 16  1  0  0  0  0
M  END
> <activity>
-12.10962915

> <InChiKey>
REIUXOLGHVXAEO-UHFFFAOYSA-N

$$$$

  Mrv2220 08292413012D          

  9  9  0  0  0  0            999 V2000
    0.0000    3.3000    0.0000 O   0  0  0  0  0  0  0  0  0  0  0  0
    0.0000    2.4750    0.0000 C   0  0  0  0  0  0  0  0  0  0  0  0
    0.7145    2.0625    0.0000 C   0  0  0  0  0  0  0  0  0  0  0  0
    0.7145    1.2375    0.0000 N   0  0  0  0  0  0  0  0  0  0  0  0
    1.4289    0.8250    0.0000 C   0  0  0  0  0  0  0  0  0  0  0  0
    1.4289   -0.0000    0.0000 C   0  0  0  0  0  0  0  0  0  0  0  0
    0.7145   -0.4125    0.0000 N   0  0  0  0  0  0  0  0  0  0  0  0
    0.0000    0.0000    0.0000 C   0  0  0  0  0  0  0  0  0  0  0  0
    0.0000    0.8250    0.0000 C   0  0  0  0  0  0  0  0  0  0  0  0
  1  2  1  0  0  0  0
  2  3  1  0  0  0  0
  3  4  1  0  0  0  0
  4  5  1  0  0  0  0
  5  6  1  0  0  0  0
  6  7  1  0  0  0  0
  7  8  1  0  0  0  0
  8  9  1  0  0  0  0
  4  9  1  0  0  0  0
M  END
> <activity>
6.568734364

> <InChiKey>
WFCSWCVEJLETKA-UHFFFAOYSA-N

$$$$

  Mrv2220 08292413012D          

  4  3  0  0  0  0            999 V2000
    1.2375    0.7145    0.0000 C   0  0  0  0  0  0  0  0  0  0  0  0
    0.8250    0.0000    0.0000 N   0  0  0  0  0  0  0  0  0  0  0  0
    1.2375   -0.7145    0.0000 C   0  0  0  0  0  0  0  0  0  0  0  0
    0.0000    0.0000    0.0000 N   0  0  0  0  0  0  0  0  0  0  0  0
  1  2  1  0  0  0  0
  2  3  1  0  0  0  0
  2  4  1  0  0  0  0
M  END
> <activity>
17.1907829

> <InChiKey>
RHUYHJGZWVXEHW-UHFFFAOYSA-N

$$$$

  Mrv2220 08292413012D          

  8  8  0  0  0  0            999 V2000
    1.2448    1.8695    0.0000 C   0  0  0  0  0  0  0  0  0  0  0  0
    0.7145    1.2375    0.0000 N   0  3  0  0  0  0  0  0  0  0  0  0
    0.1842    1.8695    0.0000 C   0  0  0  0  0  0  0  0  0  0  0  0
    1.4289    0.8250    0.0000 C   0  0  0  0  0  0  0  0  0  0  0  0
    1.4289   -0.0000    0.0000 C   0  0  0  0  0  0  0  0  0  0  0  0
    0.7145   -0.4125    0.0000 C   0  0  0  0  0  0  0  0  0  0  0  0
    0.0000    0.0000    0.0000 C   0  0  0  0  0  0  0  0  0  0  0  0
    0.0000    0.8250    0.0000 C   0  0  0  0  0  0  0  0  0  0  0  0
  1  2  1  0  0  0  0
  2  3  1  0  0  0  0
  2  4  1  0  0  0  0
  4  5  1  0  0  0  0
  5  6  1  0  0  0  0
  6  7  1  0  0  0  0
  7  8  1  0  0  0  0
  2  8  1  0  0  0  0
M  CHG  1   2   1
M  END
> <activity>
27.50852547

> <InChiKey>
NNCAWEWCFVZOGF-UHFFFAOYSA-N

$$$$

  Mrv2220 08292413012D          

  6  5  0  0  0  0            999 V2000
    2.4750   -1.4289    0.0000 Cl  0  0  0  0  0  0  0  0  0  0  0  0
    2.0625   -0.7145    0.0000 C   0  0  0  0  0  0  0  0  0  0  0  0
    1.2375   -0.7145    0.0000 C   0  0  0  0  0  0  0  0  0  0  0  0
    0.8250   -1.4289    0.0000 Cl  0  0  0  0  0  0  0  0  0  0  0  0
    0.8250    0.0000    0.0000 C   0  0  0  0  0  0  0  0  0  0  0  0
    0.0000    0.0000    0.0000 Cl  0  0  0  0  0  0  0  0  0  0  0  0
  1  2  1  0  0  0  0
  2  3  1  0  0  0  0
  3  4  1  0  0  0  0
  3  5  1  0  0  0  0
  5  6  1  0  0  0  0
M  END
> <activity>
10.70079458

> <InChiKey>
CFXQEHVMCRXUSD-UHFFFAOYSA-N

$$$$

  Mrv2220 08292413012D          

 10 10  0  0  0  0            999 V2000
    1.4289    2.4750    0.0000 N   0  0  0  0  0  0  0  0  0  0  0  0
    0.7145    2.0625    0.0000 C   0  0  0  0  0  0  0  0  0  0  0  0
    0.7145    1.2375    0.0000 C   0  0  0  0  0  0  0  0  0  0  0  0
    1.4289    0.8250    0.0000 C   0  0  0  0  0  0  0  0  0  0  0  0
    1.4289   -0.0000    0.0000 C   0  0  0  0  0  0  0  0  0  0  0  0
    0.7145   -0.4125    0.0000 C   0  0  0  0  0  0  0  0  0  0  0  0
    0.0000    0.0000    0.0000 C   0  0  0  0  0  0  0  0  0  0  0  0
   -0.7145   -0.4125    0.0000 C   0  0  0  0  0  0  0  0  0  0  0  0
   -0.7145   -1.2375    0.0000 N   0  0  0  0  0  0  0  0  0  0  0  0
    0.0000    0.8250    0.0000 C   0  0  0  0  0  0  0  0  0  0  0  0
  1  2  1  0  0  0  0
  2  3  1  0  0  0  0
  3  4  4  0  0  0  0
  4  5  4  0  0  0  0
  5  6  4  0  0  0  0
  6  7  4  0  0  0  0
  7  8  1  0  0  0  0
  8  9  1  0  0  0  0
  7 10  4  0  0  0  0
  3 10  4  0  0  0  0
M  END
> <activity>
-4.52199394

> <InChiKey>
FDLQZKYLHJJBHD-UHFFFAOYSA-N

$$$$

  Mrv2220 08292413012D          

  6  5  0  0  0  0            999 V2000
    0.8250   -1.4289    0.0000 O   0  0  0  0  0  0  0  0  0  0  0  0
    1.2375   -0.7145    0.0000 C   0  0  0  0  0  0  0  0  0  0  0  0
    2.0625   -0.7145    0.0000 C   0  0  0  0  0  0  0  0  0  0  0  0
    2.4750   -1.4289    0.0000 Cl  0  0  0  0  0  0  0  0  0  0  0  0
    0.8250    0.0000    0.0000 C   0  0  0  0  0  0  0  0  0  0  0  0
    0.0000    0.0000    0.0000 Cl  0  0  0  0  0  0  0  0  0  0  0  0
  1  2  1  0  0  0  0
  2  3  1  0  0  0  0
  3  4  1  0  0  0  0
  2  5  1  0  0  0  0
  5  6  1  0  0  0  0
M  END
> <activity>
1.731827396

> <InChiKey>
DEWLEGDTCGBNGU-UHFFFAOYSA-N

$$$$

  Mrv2220 08292413012D          

 12 12  0  0  0  0            999 V2000
    1.4289    2.4750    0.0000 C   0  0  0  0  0  0  0  0  0  0  0  0
    0.7145    2.0625    0.0000 C   0  0  0  0  0  0  0  0  0  0  0  0
    0.0000    2.4750    0.0000 C   0  0  0  0  0  0  0  0  0  0  0  0
    0.7145    1.2375    0.0000 C   0  0  0  0  0  0  0  0  0  0  0  0
    1.4289    0.8250    0.0000 C   0  0  0  0  0  0  0  0  0  0  0  0
    1.4289   -0.0000    0.0000 C   0  0  0  0  0  0  0  0  0  0  0  0
    0.7145   -0.4125    0.0000 C   0  0  0  0  0  0  0  0  0  0  0  0
    0.0000    0.0000    0.0000 C   0  0  0  0  0  0  0  0  0  0  0  0
   -0.7145   -0.4125    0.0000 C   0  0  0  0  0  0  0  0  0  0  0  0
   -0.7145   -1.2375    0.0000 C   0  0  0  0  0  0  0  0  0  0  0  0
   -1.4289    0.0000    0.0000 C   0  0  0  0  0  0  0  0  0  0  0  0
    0.0000    0.8250    0.0000 C   0  0  0  0  0  0  0  0  0  0  0  0
  1  2  1  0  0  0  0
  2  3  1  0  0  0  0
  2  4  1  0  0  0  0
  4  5  4  0  0  0  0
  5  6  4  0  0  0  0
  6  7  4  0  0  0  0
  7  8  4  0  0  0  0
  8  9  1  0  0  0  0
  9 10  1  0  0  0  0
  9 11  1  0  0  0  0
  8 12  4  0  0  0  0
  4 12  4  0  0  0  0
M  END
> <activity>
21.53852357

> <InChiKey>
UNEATYXSUBPPKP-UHFFFAOYSA-N

$$$$

  Mrv2220 08292413012D          

  8  7  0  0  0  0            999 V2000
    3.9039    0.6039    0.0000 O   0  0  0  0  0  0  0  0  0  0  0  0
    3.9039    1.4289    0.0000 C   0  0  0  0  0  0  0  0  0  0  0  0
    3.1895    1.8414    0.0000 N   0  0  0  0  0  0  0  0  0  0  0  0
    2.4750    1.4289    0.0000 C   0  0  0  0  0  0  0  0  0  0  0  0
    1.7605    1.8414    0.0000 O   0  0  0  0  0  0  0  0  0  0  0  0
    4.6184    1.8414    0.0000 N   0  0  0  0  0  0  0  0  0  0  0  0
    5.3329    1.4289    0.0000 C   0  0  0  0  0  0  0  0  0  0  0  0
    6.0474    1.8414    0.0000 O   0  0  0  0  0  0  0  0  0  0  0  0
  1  2  2  0  0  0  0
  2  3  1  0  0  0  0
  3  4  1  0  0  0  0
  4  5  1  0  0  0  0
  2  6  1  0  0  0  0
  6  7  1  0  0  0  0
  7  8  1  0  0  0  0
M  END
> <activity>
13.3282559

> <InChiKey>
QUBQYFYWUJJAAK-UHFFFAOYSA-N

$$$$

  Mrv2220 08292413012D          

 12 11  0  0  0  0            999 V2000
    2.2836    2.1434    0.0000 C   0  0  0  0  0  0  0  0  0  0  0  0
    2.9980    2.5559    0.0000 C   0  0  0  0  0  0  0  0  0  0  0  0
    3.7125    2.1434    0.0000 C   0  0  0  0  0  0  0  0  0  0  0  0
    4.4270    2.5559    0.0000 C   0  0  0  0  0  0  0  0  0  0  0  0
    5.1414    2.1434    0.0000 C   0  0  0  0  0  0  0  0  0  0  0  0
    5.1414    1.3184    0.0000 C   0  0  0  0  0  0  0  0  0  0  0  0
    5.8559    0.9059    0.0000 C   0  0  0  0  0  0  0  0  0  0  0  0
    5.8559    2.5559    0.0000 C   0  0  0  0  0  0  0  0  0  0  0  0
    6.5704    2.1434    0.0000 O   0  0  0  0  0  0  0  0  0  0  0  0
    7.2849    2.5559    0.0000 C   0  0  0  0  0  0  0  0  0  0  0  0
    7.9993    2.1434    0.0000 C   0  0  0  0  0  0  0  0  0  0  0  0
    8.7138    2.5559    0.0000 O   0  0  0  0  0  0  0  0  0  0  0  0
  1  2  1  0  0  0  0
  2  3  1  0  0  0  0
  3  4  1  0  0  0  0
  4  5  1  0  0  0  0
  5  6  1  0  0  0  0
  6  7  1  0  0  0  0
  5  8  1  0  0  0  0
  8  9  1  0  0  0  0
  9 10  1  0  0  0  0
 10 11  1  0  0  0  0
 11 12  1  0  0  0  0
M  END
> <activity>
27.39115415

> <InChiKey>
OHJYHAOODFPJOD-UHFFFAOYSA-N

$$$$

  Mrv2220 08292413012D          

 15 15  0  0  0  0            999 V2000
   -0.7145    2.0625    0.0000 C   0  0  0  0  0  0  0  0  0  0  0  0
    0.0000    2.4750    0.0000 C   0  0  0  0  0  0  0  0  0  0  0  0
    0.0000    3.3000    0.0000 C   0  0  0  0  0  0  0  0  0  0  0  0
   -0.7145    3.7125    0.0000 O   0  0  0  0  0  0  0  0  0  0  0  0
    0.7145    2.0625    0.0000 C   0  0  0  0  0  0  0  0  0  0  0  0
    0.7145    1.2375    0.0000 C   0  0  0  0  0  0  0  0  0  0  0  0
    1.4289    0.8250    0.0000 C   0  0  0  0  0  0  0  0  0  0  0  0
    1.4289   -0.0000    0.0000 C   0  0  0  0  0  0  0  0  0  0  0  0
    0.7145   -0.4125    0.0000 C   0  0  0  0  0  0  0  0  0  0  0  0
    0.7145   -1.2375    0.0000 C   0  0  0  0  0  0  0  0  0  0  0  0
    0.7145   -2.0625    0.0000 C   0  0  0  0  0  0  0  0  0  0  0  0
   -0.1105   -1.2375    0.0000 C   0  0  0  0  0  0  0  0  0  0  0  0
    1.5395   -1.2375    0.0000 C   0  0  0  0  0  0  0  0  0  0  0  0
    0.0000    0.0000    0.0000 C   0  0  0  0  0  0  0  0  0  0  0  0
    0.0000    0.8250    0.0000 C   0  0  0  0  0  0  0  0  0  0  0  0
  1  2  1  0  0  0  0
  2  3  1  0  0  0  0
  3  4  2  0  0  0  0
  2  5  1  0  0  0  0
  5  6  1  0  0  0  0
  6  7  4  0  0  0  0
  7  8  4  0  0  0  0
  8  9  4  0  0  0  0
  9 10  1  0  0  0  0
 10 11  1  0  0  0  0
 10 12  1  0  0  0  0
 10 13  1  0  0  0  0
  9 14  4  0  0  0  0
 14 15  4  0  0  0  0
  6 15  4  0  0  0  0
M  END
> <activity>
78.93843029

> <InChiKey>
SDQFDHOLCGWZPU-UHFFFAOYSA-N

$$$$

  Mrv2220 08292413012D          

 10  9  0  0  0  0            999 V2000
    2.6664    0.7145    0.0000 O   0  0  0  0  0  0  0  0  0  0  0  0
    1.9520    0.3020    0.0000 N   0  3  0  0  0  0  0  0  0  0  0  0
    1.9520   -0.5230    0.0000 O   0  5  0  0  0  0  0  0  0  0  0  0
    1.2375    0.7145    0.0000 C   0  0  0  0  0  0  0  0  0  0  0  0
    0.5230    1.1270    0.0000 C   0  0  0  0  0  0  0  0  0  0  0  0
   -0.1914    0.7145    0.0000 O   0  0  0  0  0  0  0  0  0  0  0  0
    1.6500    1.4289    0.0000 C   0  0  0  0  0  0  0  0  0  0  0  0
    1.2375    2.1434    0.0000 O   0  0  0  0  0  0  0  0  0  0  0  0
    0.8250    0.0000    0.0000 C   0  0  0  0  0  0  0  0  0  0  0  0
    0.0000    0.0000    0.0000 O   0  0  0  0  0  0  0  0  0  0  0  0
  1  2  2  0  0  0  0
  2  3  1  0  0  0  0
  2  4  1  0  0  0  0
  4  5  1  0  0  0  0
  5  6  1  0  0  0  0
  4  7  1  0  0  0  0
  7  8  1  0  0  0  0
  4  9  1  0  0  0  0
  9 10  1  0  0  0  0
M  CHG  2   2   1   3  -1
M  END
> <activity>
11.44086022

> <InChiKey>
OLQJQHSAWMFDJE-UHFFFAOYSA-N

$$$$

  Mrv2220 08292413012D          

 14 15  0  0  0  0            999 V2000
    1.9275   -3.5596    0.0000 N   0  0  0  0  0  0  0  0  0  0  0  0
    2.6420   -3.1471    0.0000 C   0  0  0  0  0  0  0  0  0  0  0  0
    3.3565   -2.7346    0.0000 S   0  0  0  0  0  0  0  0  0  0  0  0
    4.0709   -3.1471    0.0000 C   0  0  0  0  0  0  0  0  0  0  0  0
    4.7854   -2.7346    0.0000 S   0  0  0  0  0  0  0  0  0  0  0  0
    5.4999   -3.1471    0.0000 C   0  0  0  0  0  0  0  0  0  0  0  0
    6.2536   -2.8116    0.0000 N   0  0  0  0  0  0  0  0  0  0  0  0
    6.8056   -3.4247    0.0000 C   0  0  0  0  0  0  0  0  0  0  0  0
    7.6306   -3.4247    0.0000 C   0  0  0  0  0  0  0  0  0  0  0  0
    8.0431   -4.1392    0.0000 C   0  0  0  0  0  0  0  0  0  0  0  0
    7.6306   -4.8536    0.0000 C   0  0  0  0  0  0  0  0  0  0  0  0
    6.8056   -4.8536    0.0000 C   0  0  0  0  0  0  0  0  0  0  0  0
    6.3931   -4.1392    0.0000 C   0  0  0  0  0  0  0  0  0  0  0  0
    5.5861   -3.9676    0.0000 S   0  0  0  0  0  0  0  0  0  0  0  0
  1  2  3  0  0  0  0
  2  3  1  0  0  0  0
  3  4  1  0  0  0  0
  4  5  1  0  0  0  0
  5  6  1  0  0  0  0
  6  7  4  0  0  0  0
  7  8  4  0  0  0  0
  8  9  4  0  0  0  0
  9 10  4  0  0  0  0
 10 11  4  0  0  0  0
 11 12  4  0  0  0  0
 12 13  4  0  0  0  0
  8 13  4  0  0  0  0
 13 14  4  0  0  0  0
  6 14  4  0  0  0  0
M  END
> <activity>
96.1798647

> <InChiKey>
TUBQDCKAWGHZPF-UHFFFAOYSA-N

$$$$

  Mrv2220 08292413012D          

 13 12  0  0  0  0            999 V2000
   -1.3184   -3.7125    0.0000 C   0  0  0  0  0  0  0  0  0  0  0  0
   -1.3184   -2.8875    0.0000 C   0  0  0  0  0  0  0  0  0  0  0  0
   -0.6039   -2.4750    0.0000 C   0  0  0  0  0  0  0  0  0  0  0  0
    0.1105   -2.8875    0.0000 O   0  0  0  0  0  0  0  0  0  0  0  0
   -0.6039   -1.6500    0.0000 N   0  0  0  0  0  0  0  0  0  0  0  0
    0.1105   -1.2375    0.0000 C   0  0  0  0  0  0  0  0  0  0  0  0
    0.5230   -1.9520    0.0000 C   0  0  0  0  0  0  0  0  0  0  0  0
   -0.3020   -0.5230    0.0000 C   0  0  0  0  0  0  0  0  0  0  0  0
    0.8250   -0.8250    0.0000 C   0  0  0  0  0  0  0  0  0  0  0  0
    0.8250    0.0000    0.0000 S   0  0  0  0  0  0  0  0  0  0  0  0
    0.8250    0.8250    0.0000 O   0  0  0  0  0  0  0  0  0  0  0  0
    1.6500   -0.0000    0.0000 O   0  0  0  0  0  0  0  0  0  0  0  0
    0.0000    0.0000    0.0000 O   0  0  0  0  0  0  0  0  0  0  0  0
  1  2  2  0  0  0  0
  2  3  1  0  0  0  0
  3  4  2  0  0  0  0
  3  5  1  0  0  0  0
  5  6  1  0  0  0  0
  6  7  1  0  0  0  0
  6  8  1  0  0  0  0
  6  9  1  0  0  0  0
  9 10  1  0  0  0  0
 10 11  2  0  0  0  0
 10 12  2  0  0  0  0
 10 13  1  0  0  0  0
M  END
> <activity>
1.340730467

> <InChiKey>
XHZPRMZZQOIPDS-UHFFFAOYSA-N

$$$$

  Mrv2220 08292413012D          

  9  9  0  0  0  0            999 V2000
    0.0000    2.4750    0.0000 C   0  0  0  0  0  0  0  0  0  0  0  0
    0.7145    2.0625    0.0000 O   0  0  0  0  0  0  0  0  0  0  0  0
    0.7145    1.2375    0.0000 C   0  0  0  0  0  0  0  0  0  0  0  0
    1.4289    0.8250    0.0000 C   0  0  0  0  0  0  0  0  0  0  0  0
    1.4289   -0.0000    0.0000 C   0  0  0  0  0  0  0  0  0  0  0  0
    0.7145   -0.4125    0.0000 C   0  0  0  0  0  0  0  0  0  0  0  0
    0.0000    0.0000    0.0000 C   0  0  0  0  0  0  0  0  0  0  0  0
    0.0000    0.8250    0.0000 C   0  0  0  0  0  0  0  0  0  0  0  0
   -0.7145    1.2375    0.0000 N   0  0  0  0  0  0  0  0  0  0  0  0
  1  2  1  0  0  0  0
  2  3  1  0  0  0  0
  3  4  4  0  0  0  0
  4  5  4  0  0  0  0
  5  6  4  0  0  0  0
  6  7  4  0  0  0  0
  7  8  4  0  0  0  0
  3  8  4  0  0  0  0
  8  9  1  0  0  0  0
M  END
> <activity>
52.25730398

> <InChiKey>
VMPITZXILSNTON-UHFFFAOYSA-N

$$$$

  Mrv2220 08292413012D          

 11 11  0  0  0  0            999 V2000
   -0.7145    2.0625    0.0000 O   0  0  0  0  0  0  0  0  0  0  0  0
    0.0000    2.4750    0.0000 C   0  0  0  0  0  0  0  0  0  0  0  0
    0.0000    3.3000    0.0000 C   0  0  0  0  0  0  0  0  0  0  0  0
   -0.7145    3.7125    0.0000 Cl  0  0  0  0  0  0  0  0  0  0  0  0
    0.7145    2.0625    0.0000 N   0  0  0  0  0  0  0  0  0  0  0  0
    0.7145    1.2375    0.0000 C   0  0  0  0  0  0  0  0  0  0  0  0
    1.4289    0.8250    0.0000 C   0  0  0  0  0  0  0  0  0  0  0  0
    1.4289   -0.0000    0.0000 C   0  0  0  0  0  0  0  0  0  0  0  0
    0.7145   -0.4125    0.0000 C   0  0  0  0  0  0  0  0  0  0  0  0
    0.0000    0.0000    0.0000 C   0  0  0  0  0  0  0  0  0  0  0  0
    0.0000    0.8250    0.0000 C   0  0  0  0  0  0  0  0  0  0  0  0
  1  2  2  0  0  0  0
  2  3  1  0  0  0  0
  3  4  1  0  0  0  0
  2  5  1  0  0  0  0
  5  6  1  0  0  0  0
  6  7  4  0  0  0  0
  7  8  4  0  0  0  0
  8  9  4  0  0  0  0
  9 10  4  0  0  0  0
 10 11  4  0  0  0  0
  6 11  4  0  0  0  0
M  END
> <activity>
27.63407157

> <InChiKey>
VONWPEXRCLHKRJ-UHFFFAOYSA-N

$$$$

  Mrv2220 08292413012D          

  6  5  0  0  0  0            999 V2000
   -0.1914    0.7145    0.0000 C   0  0  0  0  0  0  0  0  0  0  0  0
    0.5230    1.1270    0.0000 C   0  0  0  0  0  0  0  0  0  0  0  0
    1.2375    0.7145    0.0000 O   0  0  0  0  0  0  0  0  0  0  0  0
    1.9520    1.1270    0.0000 C   0  0  0  0  0  0  0  0  0  0  0  0
    2.6664    0.7145    0.0000 C   0  0  0  0  0  0  0  0  0  0  0  0
    3.3809    1.1270    0.0000 O   0  0  0  0  0  0  0  0  0  0  0  0
  1  2  1  0  0  0  0
  2  3  1  0  0  0  0
  3  4  1  0  0  0  0
  4  5  1  0  0  0  0
  5  6  1  0  0  0  0
M  END
> <activity>
-23.54424203

> <InChiKey>
ZNQVEEAIQZEUHB-UHFFFAOYSA-N

$$$$

  Mrv2220 08292413012D          

  9  8  0  0  0  0            999 V2000
    0.8250   -1.4289    0.0000 C   0  0  0  0  0  0  0  0  0  0  0  0
    1.2375   -2.1434    0.0000 C   0  0  0  0  0  0  0  0  0  0  0  0
    2.0625   -2.1434    0.0000 C   0  0  0  0  0  0  0  0  0  0  0  0
    2.4750   -2.8579    0.0000 C   0  0  0  0  0  0  0  0  0  0  0  0
    3.3000   -2.8579    0.0000 C   0  0  0  0  0  0  0  0  0  0  0  0
    3.7125   -3.5724    0.0000 C   0  0  0  0  0  0  0  0  0  0  0  0
    4.5375   -3.5724    0.0000 O   0  0  0  0  0  0  0  0  0  0  0  0
    3.7125   -2.1434    0.0000 C   0  0  0  0  0  0  0  0  0  0  0  0
    4.5375   -2.1434    0.0000 C   0  0  0  0  0  0  0  0  0  0  0  0
  1  2  1  0  0  0  0
  2  3  1  0  0  0  0
  3  4  1  0  0  0  0
  4  5  1  0  0  0  0
  5  6  1  0  0  0  0
  6  7  2  0  0  0  0
  5  8  1  0  0  0  0
  8  9  1  0  0  0  0
M  END
> <activity>
5.541245624

> <InChiKey>
LGYNIFWIKSEESD-UHFFFAOYSA-N

$$$$

  Mrv2220 08292413012D          

 20 20  0  0  0  0            999 V2000
    2.1434   -5.3625    0.0000 C   0  0  0  0  0  0  0  0  0  0  0  0
    2.8579   -4.9500    0.0000 C   0  0  0  0  0  0  0  0  0  0  0  0
    3.5724   -5.3625    0.0000 C   0  0  0  0  0  0  0  0  0  0  0  0
    4.2868   -4.9500    0.0000 C   0  0  0  0  0  0  0  0  0  0  0  0
    5.0013   -5.3625    0.0000 C   0  0  0  0  0  0  0  0  0  0  0  0
    5.0013   -6.1875    0.0000 C   0  0  0  0  0  0  0  0  0  0  0  0
    5.7158   -6.6000    0.0000 C   0  0  0  0  0  0  0  0  0  0  0  0
    5.7158   -4.9500    0.0000 C   0  0  0  0  0  0  0  0  0  0  0  0
    6.4302   -5.3625    0.0000 O   0  0  0  0  0  0  0  0  0  0  0  0
    7.1447   -4.9500    0.0000 C   0  0  0  0  0  0  0  0  0  0  0  0
    7.1447   -4.1250    0.0000 O   0  0  0  0  0  0  0  0  0  0  0  0
    7.8592   -5.3625    0.0000 C   0  0  0  0  0  0  0  0  0  0  0  0
    8.5737   -4.9500    0.0000 C   0  0  0  0  0  0  0  0  0  0  0  0
    9.2881   -5.3625    0.0000 C   0  0  0  0  0  0  0  0  0  0  0  0
    9.2881   -6.1875    0.0000 C   0  0  0  0  0  0  0  0  0  0  0  0
   10.0026   -6.6000    0.0000 N   0  0  0  0  0  0  0  0  0  0  0  0
   10.7171   -6.1875    0.0000 C   0  0  0  0  0  0  0  0  0  0  0  0
   10.0026   -7.4250    0.0000 C   0  0  0  0  0  0  0  0  0  0  0  0
    8.5737   -6.6000    0.0000 C   0  0  0  0  0  0  0  0  0  0  0  0
    7.8592   -6.1875    0.0000 C   0  0  0  0  0  0  0  0  0  0  0  0
  1  2  1  0  0  0  0
  2  3  1  0  0  0  0
  3  4  1  0  0  0  0
  4  5  1  0  0  0  0
  5  6  1  0  0  0  0
  6  7  1  0  0  0  0
  5  8  1  0  0  0  0
  8  9  1  0  0  0  0
  9 10  1  0  0  0  0
 10 11  2  0  0  0  0
 10 12  1  0  0  0  0
 12 13  4  0  0  0  0
 13 14  4  0  0  0  0
 14 15  4  0  0  0  0
 15 16  1  0  0  0  0
 16 17  1  0  0  0  0
 16 18  1  0  0  0  0
 15 19  4  0  0  0  0
 19 20  4  0  0  0  0
 12 20  4  0  0  0  0
M  END
> <activity>
45.81324631

> <InChiKey>
WYWZRNAHINYAEF-UHFFFAOYSA-N

$$$$

  Mrv2220 08292413012D          

  5  4  0  0  0  0            999 V2000
    2.0625   -0.7145    0.0000 O   0  0  0  0  0  0  0  0  0  0  0  0
    1.2375   -0.7145    0.0000 C   0  0  0  0  0  0  0  0  0  0  0  0
    0.8250   -1.4289    0.0000 O   0  0  0  0  0  0  0  0  0  0  0  0
    0.8250    0.0000    0.0000 C   0  0  0  0  0  0  0  0  0  0  0  0
    0.0000    0.0000    0.0000 F   0  0  0  0  0  0  0  0  0  0  0  0
  1  2  2  0  0  0  0
  2  3  1  0  0  0  0
  2  4  1  0  0  0  0
  4  5  1  0  0  0  0
M  END
> <activity>
23.34705993

> <InChiKey>
QEWYKACRFQMRMB-UHFFFAOYSA-N

$$$$

  Mrv2220 08292413012D          

 17 16  0  0  0  0            999 V2000
    6.7105    4.6993    0.0000 C   0  0  0  0  0  0  0  0  0  0  0  0
    7.4250    4.2868    0.0000 C   0  0  0  0  0  0  0  0  0  0  0  0
    8.1395    4.6993    0.0000 C   0  0  0  0  0  0  0  0  0  0  0  0
    8.8539    4.2868    0.0000 C   0  0  0  0  0  0  0  0  0  0  0  0
    9.5684    4.6993    0.0000 C   0  0  0  0  0  0  0  0  0  0  0  0
   10.2829    4.2868    0.0000 C   0  0  0  0  0  0  0  0  0  0  0  0
   10.9974    4.6993    0.0000 C   0  0  0  0  0  0  0  0  0  0  0  0
   11.7118    4.2868    0.0000 C   0  0  0  0  0  0  0  0  0  0  0  0
   12.4263    4.6993    0.0000 C   0  0  0  0  0  0  0  0  0  0  0  0
   12.4263    5.5243    0.0000 C   0  0  0  0  0  0  0  0  0  0  0  0
   13.1408    5.9368    0.0000 O   0  0  0  0  0  0  0  0  0  0  0  0
   13.1408    4.2868    0.0000 C   0  0  0  0  0  0  0  0  0  0  0  0
   13.8552    4.6993    0.0000 C   0  0  0  0  0  0  0  0  0  0  0  0
   14.5697    4.2868    0.0000 C   0  0  0  0  0  0  0  0  0  0  0  0
   15.2842    4.6993    0.0000 C   0  0  0  0  0  0  0  0  0  0  0  0
   15.9987    4.2868    0.0000 C   0  0  0  0  0  0  0  0  0  0  0  0
   16.7131    4.6993    0.0000 C   0  0  0  0  0  0  0  0  0  0  0  0
  1  2  1  0  0  0  0
  2  3  1  0  0  0  0
  3  4  1  0  0  0  0
  4  5  1  0  0  0  0
  5  6  1  0  0  0  0
  6  7  1  0  0  0  0
  7  8  1  0  0  0  0
  8  9  1  0  0  0  0
  9 10  1  0  0  0  0
 10 11  1  0  0  0  0
  9 12  1  0  0  0  0
 12 13  1  0  0  0  0
 13 14  1  0  0  0  0
 14 15  1  0  0  0  0
 15 16  1  0  0  0  0
 16 17  1  0  0  0  0
M  END
> <activity>
27.78831504

> <InChiKey>
XULHFMYCBKQGEE-UHFFFAOYSA-N

$$$$

  Mrv2220 08292413012D          

  6  5  0  0  0  0            999 V2000
    2.4750   -0.0000    0.0000 C   0  0  0  0  0  0  0  0  0  0  0  0
    1.6500   -0.0000    0.0000 C   0  0  0  0  0  0  0  0  0  0  0  0
    1.6500    0.8250    0.0000 C   0  0  0  0  0  0  0  0  0  0  0  0
    1.6500   -0.8250    0.0000 O   0  0  0  0  0  0  0  0  0  0  0  0
    0.8250    0.0000    0.0000 C   0  0  0  0  0  0  0  0  0  0  0  0
    0.0000    0.0000    0.0000 N   0  0  0  0  0  0  0  0  0  0  0  0
  1  2  1  0  0  0  0
  2  3  1  0  0  0  0
  2  4  1  0  0  0  0
  2  5  1  0  0  0  0
  5  6  3  0  0  0  0
M  END
> <activity>
17.39541759

> <InChiKey>
MWFMGBPGAXYFAR-UHFFFAOYSA-N

$$$$

  Mrv2220 08292413012D          

 10 10  0  0  0  0            999 V2000
    0.0000    2.4750    0.0000 C   0  0  0  0  0  0  0  0  0  0  0  0
    0.7145    2.0625    0.0000 C   0  0  0  0  0  0  0  0  0  0  0  0
    1.4289    2.4750    0.0000 C   0  0  0  0  0  0  0  0  0  0  0  0
    0.7145    1.2375    0.0000 C   0  0  0  0  0  0  0  0  0  0  0  0
    1.4289    0.8250    0.0000 C   0  0  0  0  0  0  0  0  0  0  0  0
    1.4289   -0.0000    0.0000 C   0  0  0  0  0  0  0  0  0  0  0  0
    0.7145   -0.4125    0.0000 C   0  0  0  0  0  0  0  0  0  0  0  0
    0.0000    0.0000    0.0000 C   0  0  0  0  0  0  0  0  0  0  0  0
    0.0000    0.8250    0.0000 C   0  0  0  0  0  0  0  0  0  0  0  0
   -0.7145    1.2375    0.0000 O   0  0  0  0  0  0  0  0  0  0  0  0
  1  2  1  0  0  0  0
  2  3  1  0  0  0  0
  2  4  1  0  0  0  0
  4  5  4  0  0  0  0
  5  6  4  0  0  0  0
  6  7  4  0  0  0  0
  7  8  4  0  0  0  0
  8  9  4  0  0  0  0
  4  9  4  0  0  0  0
  9 10  1  0  0  0  0
M  END
> <activity>
85.84807142

> <InChiKey>
CRBJBYGJVIBWIY-UHFFFAOYSA-N

$$$$

  Mrv2220 08292413012D          

 12 12  0  0  0  0            999 V2000
    0.0000    2.4750    0.0000 C   0  0  0  0  0  0  0  0  0  0  0  0
    0.7145    2.0625    0.0000 O   0  0  0  0  0  0  0  0  0  0  0  0
    0.7145    1.2375    0.0000 C   0  0  0  0  0  0  0  0  0  0  0  0
    1.4289    0.8250    0.0000 C   0  0  0  0  0  0  0  0  0  0  0  0
    1.4289   -0.0000    0.0000 C   0  0  0  0  0  0  0  0  0  0  0  0
    2.1434   -0.4125    0.0000 N   0  3  0  0  0  0  0  0  0  0  0  0
    2.8579   -0.0000    0.0000 O   0  0  0  0  0  0  0  0  0  0  0  0
    2.1434   -1.2375    0.0000 O   0  5  0  0  0  0  0  0  0  0  0  0
    0.7145   -0.4125    0.0000 C   0  0  0  0  0  0  0  0  0  0  0  0
    0.0000    0.0000    0.0000 C   0  0  0  0  0  0  0  0  0  0  0  0
    0.0000    0.8250    0.0000 C   0  0  0  0  0  0  0  0  0  0  0  0
   -0.7145    1.2375    0.0000 N   0  0  0  0  0  0  0  0  0  0  0  0
  1  2  1  0  0  0  0
  2  3  1  0  0  0  0
  3  4  4  0  0  0  0
  4  5  4  0  0  0  0
  5  6  1  0  0  0  0
  6  7  2  0  0  0  0
  6  8  1  0  0  0  0
  5  9  4  0  0  0  0
  9 10  4  0  0  0  0
 10 11  4  0  0  0  0
  3 11  4  0  0  0  0
 11 12  1  0  0  0  0
M  CHG  2   6   1   8  -1
M  END
> <activity>
98.78113243

> <InChiKey>
GVBHRNIWBGTNQA-UHFFFAOYSA-N

$$$$

  Mrv2220 08292413012D          

 12 14  0  0  0  0            999 V2000
   -1.0396    1.8646    0.0000 O   0  0  0  0  0  0  0  0  0  0  0  0
   -0.7846    1.0799    0.0000 C   0  0  0  0  0  0  0  0  0  0  0  0
   -1.2695    0.4125    0.0000 O   0  0  0  0  0  0  0  0  0  0  0  0
   -0.7846   -0.2549    0.0000 C   0  0  0  0  0  0  0  0  0  0  0  0
   -1.0396   -1.0396    0.0000 O   0  0  0  0  0  0  0  0  0  0  0  0
   -0.0000   -0.0000    0.0000 C   0  0  0  0  0  0  0  0  0  0  0  0
    0.7145   -0.4125    0.0000 C   0  0  0  0  0  0  0  0  0  0  0  0
    1.4289    0.0000    0.0000 C   0  0  0  0  0  0  0  0  0  0  0  0
    1.4289    0.8250    0.0000 C   0  0  0  0  0  0  0  0  0  0  0  0
    0.7145    1.2375    0.0000 C   0  0  0  0  0  0  0  0  0  0  0  0
    0.5082    0.4125    0.0000 C   0  0  0  0  0  0  0  0  0  0  0  0
   -0.0000    0.8250    0.0000 C   0  0  0  0  0  0  0  0  0  0  0  0
  1  2  2  0  0  0  0
  2  3  1  0  0  0  0
  3  4  1  0  0  0  0
  4  5  2  0  0  0  0
  4  6  1  0  0  0  0
  6  7  1  0  0  0  0
  7  8  1  0  0  0  0
  8  9  2  0  0  0  0
  9 10  1  0  0  0  0
 10 11  1  0  0  0  0
  7 11  1  0  0  0  0
 10 12  1  0  0  0  0
  2 12  1  0  0  0  0
  6 12  1  0  0  0  0
M  END
> <activity>
5.296084208

> <InChiKey>
KNDQHSIWLOJIGP-UHFFFAOYSA-N

$$$$

  Mrv2220 08292413012D          

 11 11  0  0  0  0            999 V2000
    0.7145    2.8875    0.0000 C   0  0  0  0  0  0  0  0  0  0  0  0
    0.7145    2.0625    0.0000 C   0  0  0  0  0  0  0  0  0  0  0  0
   -0.1105    2.0625    0.0000 C   0  0  0  0  0  0  0  0  0  0  0  0
    1.5395    2.0625    0.0000 C   0  0  0  0  0  0  0  0  0  0  0  0
    0.7145    1.2375    0.0000 C   0  0  0  0  0  0  0  0  0  0  0  0
    1.4289    0.8250    0.0000 C   0  0  0  0  0  0  0  0  0  0  0  0
    1.4289   -0.0000    0.0000 C   0  0  0  0  0  0  0  0  0  0  0  0
    0.7145   -0.4125    0.0000 C   0  0  0  0  0  0  0  0  0  0  0  0
    0.0000    0.0000    0.0000 C   0  0  0  0  0  0  0  0  0  0  0  0
    0.0000    0.8250    0.0000 C   0  0  0  0  0  0  0  0  0  0  0  0
   -0.7145    1.2375    0.0000 O   0  0  0  0  0  0  0  0  0  0  0  0
  1  2  1  0  0  0  0
  2  3  1  0  0  0  0
  2  4  1  0  0  0  0
  2  5  1  0  0  0  0
  5  6  4  0  0  0  0
  6  7  4  0  0  0  0
  7  8  4  0  0  0  0
  8  9  4  0  0  0  0
  9 10  4  0  0  0  0
  5 10  4  0  0  0  0
 10 11  1  0  0  0  0
M  END
> <activity>
68.2942369

> <InChiKey>
WJQOZHYUIDYNHM-UHFFFAOYSA-N

$$$$

  Mrv2220 08292413012D          

  7  6  0  0  0  0            999 V2000
    1.9520   -0.3020    0.0000 C   0  0  0  0  0  0  0  0  0  0  0  0
    1.2375   -0.7145    0.0000 C   0  0  0  0  0  0  0  0  0  0  0  0
    0.5230   -1.1270    0.0000 C   0  0  0  0  0  0  0  0  0  0  0  0
    1.6500   -1.4289    0.0000 C   0  0  0  0  0  0  0  0  0  0  0  0
    2.4750   -1.4289    0.0000 O   0  0  0  0  0  0  0  0  0  0  0  0
    0.8250    0.0000    0.0000 C   0  0  0  0  0  0  0  0  0  0  0  0
    0.0000    0.0000    0.0000 O   0  0  0  0  0  0  0  0  0  0  0  0
  1  2  1  0  0  0  0
  2  3  1  0  0  0  0
  2  4  1  0  0  0  0
  4  5  1  0  0  0  0
  2  6  1  0  0  0  0
  6  7  1  0  0  0  0
M  END
> <activity>
13.95437747

> <InChiKey>
SLCVBVWXLSEKPL-UHFFFAOYSA-N

$$$$

  Mrv2220 08292413012D          

  9 10  0  0  0  0            999 V2000
    3.3523    1.9354    0.0000 C   0  0  0  0  0  0  0  0  0  0  0  0
    3.3523    1.1104    0.0000 C   0  0  0  0  0  0  0  0  0  0  0  0
    2.6378    0.6979    0.0000 C   0  0  0  0  0  0  0  0  0  0  0  0
    1.9233    1.1104    0.0000 C   0  0  0  0  0  0  0  0  0  0  0  0
    1.1387    0.8555    0.0000 O   0  0  0  0  0  0  0  0  0  0  0  0
    0.6538    1.5229    0.0000 C   0  0  0  0  0  0  0  0  0  0  0  0
    1.1387    2.1904    0.0000 C   0  0  0  0  0  0  0  0  0  0  0  0
    1.9233    1.9354    0.0000 C   0  0  0  0  0  0  0  0  0  0  0  0
    2.6378    2.3479    0.0000 C   0  0  0  0  0  0  0  0  0  0  0  0
  1  2  4  0  0  0  0
  2  3  4  0  0  0  0
  3  4  4  0  0  0  0
  4  5  4  0  0  0  0
  5  6  4  0  0  0  0
  6  7  4  0  0  0  0
  7  8  4  0  0  0  0
  4  8  4  0  0  0  0
  8  9  4  0  0  0  0
  1  9  4  0  0  0  0
M  END
> <activity>
24.42513756

> <InChiKey>
IANQTJSKSUMEQM-UHFFFAOYSA-N

$$$$

  Mrv2220 08292413012D          

 17 17  0  0  0  0            999 V2000
    2.1434   -5.3625    0.0000 C   0  0  0  0  0  0  0  0  0  0  0  0
    2.8579   -4.9500    0.0000 C   0  0  0  0  0  0  0  0  0  0  0  0
    3.5724   -5.3625    0.0000 C   0  0  0  0  0  0  0  0  0  0  0  0
    4.2868   -4.9500    0.0000 C   0  0  0  0  0  0  0  0  0  0  0  0
    5.0013   -5.3625    0.0000 O   0  0  0  0  0  0  0  0  0  0  0  0
    5.7158   -4.9500    0.0000 C   0  0  0  0  0  0  0  0  0  0  0  0
    5.7158   -4.1250    0.0000 O   0  0  0  0  0  0  0  0  0  0  0  0
    6.4302   -5.3625    0.0000 C   0  0  0  0  0  0  0  0  0  0  0  0
    7.1447   -4.9500    0.0000 O   0  0  0  0  0  0  0  0  0  0  0  0
    7.8592   -5.3625    0.0000 C   0  0  0  0  0  0  0  0  0  0  0  0
    8.5737   -4.9500    0.0000 C   0  0  0  0  0  0  0  0  0  0  0  0
    9.2881   -5.3625    0.0000 C   0  0  0  0  0  0  0  0  0  0  0  0
    9.2881   -6.1875    0.0000 C   0  0  0  0  0  0  0  0  0  0  0  0
   10.0026   -6.6000    0.0000 Cl  0  0  0  0  0  0  0  0  0  0  0  0
    8.5737   -6.6000    0.0000 C   0  0  0  0  0  0  0  0  0  0  0  0
    7.8592   -6.1875    0.0000 C   0  0  0  0  0  0  0  0  0  0  0  0
    7.1447   -6.6000    0.0000 Cl  0  0  0  0  0  0  0  0  0  0  0  0
  1  2  1  0  0  0  0
  2  3  1  0  0  0  0
  3  4  1  0  0  0  0
  4  5  1  0  0  0  0
  5  6  1  0  0  0  0
  6  7  2  0  0  0  0
  6  8  1  0  0  0  0
  8  9  1  0  0  0  0
  9 10  1  0  0  0  0
 10 11  4  0  0  0  0
 11 12  4  0  0  0  0
 12 13  4  0  0  0  0
 13 14  1  0  0  0  0
 13 15  4  0  0  0  0
 15 16  4  0  0  0  0
 10 16  4  0  0  0  0
 16 17  1  0  0  0  0
M  END
> <activity>
80.36463566

> <InChiKey>
UQMRAFJOBWOFNS-UHFFFAOYSA-N

$$$$

  Mrv2220 08292413012D          

 15 15  0  0  0  0            999 V2000
    0.7145    2.8875    0.0000 C   0  0  0  0  0  0  0  0  0  0  0  0
    0.7145    2.0625    0.0000 C   0  0  0  0  0  0  0  0  0  0  0  0
   -0.1105    2.0625    0.0000 C   0  0  0  0  0  0  0  0  0  0  0  0
    1.5395    2.0625    0.0000 C   0  0  0  0  0  0  0  0  0  0  0  0
    0.7145    1.2375    0.0000 C   0  0  0  0  0  0  0  0  0  0  0  0
    1.4289    0.8250    0.0000 C   0  0  0  0  0  0  0  0  0  0  0  0
    1.4289   -0.0000    0.0000 C   0  0  0  0  0  0  0  0  0  0  0  0
    0.7145   -0.4125    0.0000 C   0  0  0  0  0  0  0  0  0  0  0  0
    0.7145   -1.2375    0.0000 O   0  0  0  0  0  0  0  0  0  0  0  0
    0.0000    0.0000    0.0000 C   0  0  0  0  0  0  0  0  0  0  0  0
   -0.7145   -0.4125    0.0000 C   0  0  0  0  0  0  0  0  0  0  0  0
   -1.4289   -0.8250    0.0000 C   0  0  0  0  0  0  0  0  0  0  0  0
   -1.1270    0.3020    0.0000 C   0  0  0  0  0  0  0  0  0  0  0  0
   -0.3020   -1.1270    0.0000 C   0  0  0  0  0  0  0  0  0  0  0  0
    0.0000    0.8250    0.0000 C   0  0  0  0  0  0  0  0  0  0  0  0
  1  2  1  0  0  0  0
  2  3  1  0  0  0  0
  2  4  1  0  0  0  0
  2  5  1  0  0  0  0
  5  6  4  0  0  0  0
  6  7  4  0  0  0  0
  7  8  4  0  0  0  0
  8  9  1  0  0  0  0
  8 10  4  0  0  0  0
 10 11  1  0  0  0  0
 11 12  1  0  0  0  0
 11 13  1  0  0  0  0
 11 14  1  0  0  0  0
 10 15  4  0  0  0  0
  5 15  4  0  0  0  0
M  END
> <activity>
95.10694813

> <InChiKey>
ICKWICRCANNIBI-UHFFFAOYSA-N

$$$$

  Mrv2220 08292413012D          

 12 12  0  0  0  0            999 V2000
    0.7145    2.0625    0.0000 C   0  0  0  0  0  0  0  0  0  0  0  0
    0.7145    1.2375    0.0000 C   0  0  0  0  0  0  0  0  0  0  0  0
    1.4289    0.8250    0.0000 C   0  0  0  0  0  0  0  0  0  0  0  0
    1.4289   -0.0000    0.0000 C   0  0  0  0  0  0  0  0  0  0  0  0
    0.7145   -0.4125    0.0000 C   0  0  0  0  0  0  0  0  0  0  0  0
    0.7145   -1.2375    0.0000 C   0  0  0  0  0  0  0  0  0  0  0  0
    0.0000    0.0000    0.0000 C   0  0  0  0  0  0  0  0  0  0  0  0
   -0.7145   -0.4125    0.0000 S   0  0  0  0  0  0  0  0  0  0  0  0
   -1.4289   -0.8250    0.0000 O   0  0  0  0  0  0  0  0  0  0  0  0
   -1.1270    0.3020    0.0000 O   0  0  0  0  0  0  0  0  0  0  0  0
   -0.3020   -1.1270    0.0000 O   0  0  0  0  0  0  0  0  0  0  0  0
    0.0000    0.8250    0.0000 C   0  0  0  0  0  0  0  0  0  0  0  0
  1  2  1  0  0  0  0
  2  3  4  0  0  0  0
  3  4  4  0  0  0  0
  4  5  4  0  0  0  0
  5  6  1  0  0  0  0
  5  7  4  0  0  0  0
  7  8  1  0  0  0  0
  8  9  2  0  0  0  0
  8 10  2  0  0  0  0
  8 11  1  0  0  0  0
  7 12  4  0  0  0  0
  2 12  4  0  0  0  0
M  END
> <activity>
41.54081266

> <InChiKey>
IRLYGRLEBKCYPY-UHFFFAOYSA-N

$$$$

  Mrv2220 08292413012D          

  9  9  0  0  0  0            999 V2000
    0.7145    2.0625    0.0000 C   0  0  0  0  0  0  0  0  0  0  0  0
    0.7145    1.2375    0.0000 C   0  0  0  0  0  0  0  0  0  0  0  0
    1.4289    0.8250    0.0000 C   0  0  0  0  0  0  0  0  0  0  0  0
    1.4289   -0.0000    0.0000 C   0  0  0  0  0  0  0  0  0  0  0  0
    0.7145   -0.4125    0.0000 C   0  0  0  0  0  0  0  0  0  0  0  0
    0.7145   -1.2375    0.0000 C   0  0  0  0  0  0  0  0  0  0  0  0
    0.0000    0.0000    0.0000 C   0  0  0  0  0  0  0  0  0  0  0  0
   -0.7145   -0.4125    0.0000 O   0  0  0  0  0  0  0  0  0  0  0  0
    0.0000    0.8250    0.0000 C   0  0  0  0  0  0  0  0  0  0  0  0
  1  2  1  0  0  0  0
  2  3  4  0  0  0  0
  3  4  4  0  0  0  0
  4  5  4  0  0  0  0
  5  6  1  0  0  0  0
  5  7  4  0  0  0  0
  7  8  1  0  0  0  0
  7  9  4  0  0  0  0
  2  9  4  0  0  0  0
M  END
> <activity>
75.15746097

> <InChiKey>
NKTOLZVEWDHZMU-UHFFFAOYSA-N

$$$$

  Mrv2220 08292413012D          

 10  9  0  0  0  0            999 V2000
   -0.6039   -3.3000    0.0000 C   0  0  0  0  0  0  0  0  0  0  0  0
   -0.6039   -2.4750    0.0000 C   0  0  0  0  0  0  0  0  0  0  0  0
   -1.3184   -2.0625    0.0000 C   0  0  0  0  0  0  0  0  0  0  0  0
    0.1105   -2.0625    0.0000 C   0  0  0  0  0  0  0  0  0  0  0  0
    0.1105   -1.2375    0.0000 C   0  0  0  0  0  0  0  0  0  0  0  0
    0.8250   -0.8250    0.0000 C   0  0  0  0  0  0  0  0  0  0  0  0
    0.8250    0.0000    0.0000 C   0  0  0  0  0  0  0  0  0  0  0  0
    0.8250    0.8250    0.0000 C   0  0  0  0  0  0  0  0  0  0  0  0
    1.6500   -0.0000    0.0000 C   0  0  0  0  0  0  0  0  0  0  0  0
    0.0000    0.0000    0.0000 O   0  0  0  0  0  0  0  0  0  0  0  0
  1  2  1  0  0  0  0
  2  3  1  0  0  0  0
  2  4  1  0  0  0  0
  4  5  1  0  0  0  0
  5  6  1  0  0  0  0
  6  7  1  0  0  0  0
  7  8  1  0  0  0  0
  7  9  1  0  0  0  0
  7 10  1  0  0  0  0
M  END
> <activity>
12.51616822

> <InChiKey>
HGDVHRITTGWMJK-UHFFFAOYSA-N

$$$$

  Mrv2220 08292413012D          

  9  9  0  0  0  0            999 V2000
    0.7145    2.0625    0.0000 C   0  0  0  0  0  0  0  0  0  0  0  0
    0.7145    1.2375    0.0000 C   0  0  0  0  0  0  0  0  0  0  0  0
    1.4289    0.8250    0.0000 C   0  0  0  0  0  0  0  0  0  0  0  0
    1.4289   -0.0000    0.0000 C   0  0  0  0  0  0  0  0  0  0  0  0
    0.7145   -0.4125    0.0000 C   0  0  0  0  0  0  0  0  0  0  0  0
    0.0000    0.0000    0.0000 C   0  0  0  0  0  0  0  0  0  0  0  0
   -0.7145   -0.4125    0.0000 C   0  0  0  0  0  0  0  0  0  0  0  0
    0.0000    0.8250    0.0000 C   0  0  0  0  0  0  0  0  0  0  0  0
   -0.7145    1.2375    0.0000 N   0  0  0  0  0  0  0  0  0  0  0  0
  1  2  1  0  0  0  0
  2  3  4  0  0  0  0
  3  4  4  0  0  0  0
  4  5  4  0  0  0  0
  5  6  4  0  0  0  0
  6  7  1  0  0  0  0
  6  8  4  0  0  0  0
  2  8  4  0  0  0  0
  8  9  1  0  0  0  0
M  END
> <activity>
43.11033884

> <InChiKey>
UFFBMTHBGFGIHF-UHFFFAOYSA-N

$$$$

  Mrv2220 08292413012D          

 13 13  0  0  0  0            999 V2000
    0.7145    2.0625    0.0000 C   0  0  0  0  0  0  0  0  0  0  0  0
    0.7145    1.2375    0.0000 C   0  0  0  0  0  0  0  0  0  0  0  0
    1.4289    0.8250    0.0000 C   0  0  0  0  0  0  0  0  0  0  0  0
    2.1434    1.2375    0.0000 N   0  3  0  0  0  0  0  0  0  0  0  0
    2.8579    0.8250    0.0000 O   0  0  0  0  0  0  0  0  0  0  0  0
    2.1434    2.0625    0.0000 O   0  5  0  0  0  0  0  0  0  0  0  0
    1.4289   -0.0000    0.0000 C   0  0  0  0  0  0  0  0  0  0  0  0
    0.7145   -0.4125    0.0000 C   0  0  0  0  0  0  0  0  0  0  0  0
    0.0000    0.0000    0.0000 C   0  0  0  0  0  0  0  0  0  0  0  0
    0.0000    0.8250    0.0000 C   0  0  0  0  0  0  0  0  0  0  0  0
   -0.7145    1.2375    0.0000 N   0  3  0  0  0  0  0  0  0  0  0  0
   -1.4289    0.8250    0.0000 O   0  0  0  0  0  0  0  0  0  0  0  0
   -0.7145    2.0625    0.0000 O   0  5  0  0  0  0  0  0  0  0  0  0
  1  2  1  0  0  0  0
  2  3  4  0  0  0  0
  3  4  1  0  0  0  0
  4  5  2  0  0  0  0
  4  6  1  0  0  0  0
  3  7  4  0  0  0  0
  7  8  4  0  0  0  0
  8  9  4  0  0  0  0
  9 10  4  0  0  0  0
  2 10  4  0  0  0  0
 10 11  1  0  0  0  0
 11 12  2  0  0  0  0
 11 13  1  0  0  0  0
M  CHG  4   4   1   6  -1  11   1  13  -1
M  END
> <activity>
62.33371891

> <InChiKey>
XTRDKALNCIHHNI-UHFFFAOYSA-N

$$$$

  Mrv2220 08292413012D          

  6  5  0  0  0  0            999 V2000
    2.4750   -1.4289    0.0000 O   0  0  0  0  0  0  0  0  0  0  0  0
    2.0625   -0.7145    0.0000 C   0  0  0  0  0  0  0  0  0  0  0  0
    1.2375   -0.7145    0.0000 C   0  0  0  0  0  0  0  0  0  0  0  0
    0.8250   -1.4289    0.0000 O   0  0  0  0  0  0  0  0  0  0  0  0
    0.8250    0.0000    0.0000 C   0  0  0  0  0  0  0  0  0  0  0  0
    0.0000    0.0000    0.0000 Cl  0  0  0  0  0  0  0  0  0  0  0  0
  1  2  1  0  0  0  0
  2  3  1  0  0  0  0
  3  4  1  0  0  0  0
  3  5  1  0  0  0  0
  5  6  1  0  0  0  0
M  END
> <activity>
13.82537201

> <InChiKey>
SSZWWUDQMAHNAQ-UHFFFAOYSA-N

$$$$

  Mrv2220 08292413012D          

  9  9  0  0  0  0            999 V2000
    0.7145    2.0625    0.0000 C   0  0  0  0  0  0  0  0  0  0  0  0
    0.7145    1.2375    0.0000 C   0  0  0  0  0  0  0  0  0  0  0  0
    1.4289    0.8250    0.0000 C   0  0  0  0  0  0  0  0  0  0  0  0
    1.4289   -0.0000    0.0000 C   0  0  0  0  0  0  0  0  0  0  0  0
    0.7145   -0.4125    0.0000 C   0  0  0  0  0  0  0  0  0  0  0  0
    0.7145   -1.2375    0.0000 N   0  0  0  0  0  0  0  0  0  0  0  0
    0.0000    0.0000    0.0000 C   0  0  0  0  0  0  0  0  0  0  0  0
    0.0000    0.8250    0.0000 C   0  0  0  0  0  0  0  0  0  0  0  0
   -0.7145    1.2375    0.0000 Cl  0  0  0  0  0  0  0  0  0  0  0  0
  1  2  1  0  0  0  0
  2  3  4  0  0  0  0
  3  4  4  0  0  0  0
  4  5  4  0  0  0  0
  5  6  1  0  0  0  0
  5  7  4  0  0  0  0
  7  8  4  0  0  0  0
  2  8  4  0  0  0  0
  8  9  1  0  0  0  0
M  END
> <activity>
77.07181467

> <InChiKey>
RQKFYFNZSHWXAW-UHFFFAOYSA-N

$$$$

  Mrv2220 08292413012D          

  8  8  0  0  0  0            999 V2000
    0.7145    2.0625    0.0000 C   0  0  0  0  0  0  0  0  0  0  0  0
    0.7145    1.2375    0.0000 C   0  0  0  0  0  0  0  0  0  0  0  0
    1.4289    0.8250    0.0000 C   0  0  0  0  0  0  0  0  0  0  0  0
    1.4289   -0.0000    0.0000 C   0  0  0  0  0  0  0  0  0  0  0  0
    0.7145   -0.4125    0.0000 C   0  0  0  0  0  0  0  0  0  0  0  0
    0.0000    0.0000    0.0000 C   0  0  0  0  0  0  0  0  0  0  0  0
   -0.7145   -0.4125    0.0000 N   0  0  0  0  0  0  0  0  0  0  0  0
    0.0000    0.8250    0.0000 C   0  0  0  0  0  0  0  0  0  0  0  0
  1  2  1  0  0  0  0
  2  3  4  0  0  0  0
  3  4  4  0  0  0  0
  4  5  4  0  0  0  0
  5  6  4  0  0  0  0
  6  7  1  0  0  0  0
  6  8  4  0  0  0  0
  2  8  4  0  0  0  0
M  END
> <activity>
22.97129385

> <InChiKey>
JJYPMNFTHPTTDI-UHFFFAOYSA-N

$$$$

  Mrv2220 08292413012D          

  7  7  0  0  0  0            999 V2000
    0.7145    2.0625    0.0000 C   0  0  0  0  0  0  0  0  0  0  0  0
    0.7145    1.2375    0.0000 C   0  0  0  0  0  0  0  0  0  0  0  0
    1.4289    0.8250    0.0000 C   0  0  0  0  0  0  0  0  0  0  0  0
    1.4289   -0.0000    0.0000 C   0  0  0  0  0  0  0  0  0  0  0  0
    0.7145   -0.4125    0.0000 C   0  0  0  0  0  0  0  0  0  0  0  0
    0.0000    0.0000    0.0000 N   0  0  0  0  0  0  0  0  0  0  0  0
    0.0000    0.8250    0.0000 C   0  0  0  0  0  0  0  0  0  0  0  0
  1  2  1  0  0  0  0
  2  3  4  0  0  0  0
  3  4  4  0  0  0  0
  4  5  4  0  0  0  0
  5  6  4  0  0  0  0
  6  7  4  0  0  0  0
  2  7  4  0  0  0  0
M  END
> <activity>
21.72913313

> <InChiKey>
ITQTTZVARXURQS-UHFFFAOYSA-N

$$$$

  Mrv2220 08292413012D          

 10 10  0  0  0  0            999 V2000
   -0.7145    3.7125    0.0000 O   0  0  0  0  0  0  0  0  0  0  0  0
    0.0000    3.3000    0.0000 C   0  0  0  0  0  0  0  0  0  0  0  0
    0.0000    2.4750    0.0000 C   0  0  0  0  0  0  0  0  0  0  0  0
    0.7145    2.0625    0.0000 C   0  0  0  0  0  0  0  0  0  0  0  0
    0.7145    1.2375    0.0000 C   0  0  0  0  0  0  0  0  0  0  0  0
    1.4289    0.8250    0.0000 C   0  0  0  0  0  0  0  0  0  0  0  0
    1.4289   -0.0000    0.0000 C   0  0  0  0  0  0  0  0  0  0  0  0
    0.7145   -0.4125    0.0000 C   0  0  0  0  0  0  0  0  0  0  0  0
    0.0000    0.0000    0.0000 C   0  0  0  0  0  0  0  0  0  0  0  0
    0.0000    0.8250    0.0000 C   0  0  0  0  0  0  0  0  0  0  0  0
  1  2  1  0  0  0  0
  3  2  1  4  0  0  0
  3  4  2  0  0  0  0
  4  5  1  0  0  0  0
  5  6  4  0  0  0  0
  6  7  4  0  0  0  0
  7  8  4  0  0  0  0
  8  9  4  0  0  0  0
  9 10  4  0  0  0  0
  5 10  4  0  0  0  0
M  END
> <activity>
23.72947381

> <InChiKey>
OOCCDEMITAIZTP-UHFFFAOYSA-N

$$$$

  Mrv2220 08292413012D          

 13 12  0  0  0  0            999 V2000
   -0.1914    0.7145    0.0000 C   0  0  0  0  0  0  0  0  0  0  0  0
    0.5230    1.1270    0.0000 C   0  0  0  0  0  0  0  0  0  0  0  0
    0.5230    1.9520    0.0000 O   0  0  0  0  0  0  0  0  0  0  0  0
    1.2375    0.7145    0.0000 O   0  0  0  0  0  0  0  0  0  0  0  0
    1.9520    1.1270    0.0000 C   0  0  0  0  0  0  0  0  0  0  0  0
    2.6664    0.7145    0.0000 C   0  0  0  0  0  0  0  0  0  0  0  0
    3.3809    1.1270    0.0000 C   0  0  0  0  0  0  0  0  0  0  0  0
    3.3809    1.9520    0.0000 C   0  0  0  0  0  0  0  0  0  0  0  0
    4.0954    0.7145    0.0000 C   0  0  0  0  0  0  0  0  0  0  0  0
    4.8099    1.1270    0.0000 C   0  0  0  0  0  0  0  0  0  0  0  0
    5.5243    1.5395    0.0000 C   0  0  0  0  0  0  0  0  0  0  0  0
    5.2224    0.4125    0.0000 C   0  0  0  0  0  0  0  0  0  0  0  0
    4.3974    1.8414    0.0000 C   0  0  0  0  0  0  0  0  0  0  0  0
  1  2  1  0  0  0  0
  2  3  2  0  0  0  0
  2  4  1  0  0  0  0
  4  5  1  0  0  0  0
  5  6  1  0  0  0  0
  6  7  1  0  0  0  0
  7  8  1  0  0  0  0
  7  9  1  0  0  0  0
  9 10  1  0  0  0  0
 10 11  1  0  0  0  0
 10 12  1  0  0  0  0
 10 13  1  0  0  0  0
M  END
> <activity>
10.05837449

> <InChiKey>
DGKXDLCVQSQVBC-UHFFFAOYSA-N

$$$$

  Mrv2220 08292413012D          

 12 12  0  0  0  0            999 V2000
    0.0000   -2.4750    0.0000 C   0  0  0  0  0  0  0  0  0  0  0  0
    0.7145   -2.8875    0.0000 C   0  0  0  0  0  0  0  0  0  0  0  0
    1.4289   -2.4750    0.0000 C   0  0  0  0  0  0  0  0  0  0  0  0
    2.1434   -2.8875    0.0000 C   0  0  0  0  0  0  0  0  0  0  0  0
    2.8579   -2.4750    0.0000 O   0  0  0  0  0  0  0  0  0  0  0  0
    3.5724   -2.8875    0.0000 C   0  0  0  0  0  0  0  0  0  0  0  0
    4.2868   -2.4750    0.0000 C   0  0  0  0  0  0  0  0  0  0  0  0
    5.0013   -2.8875    0.0000 C   0  0  0  0  0  0  0  0  0  0  0  0
    5.0013   -3.7125    0.0000 C   0  0  0  0  0  0  0  0  0  0  0  0
    5.7158   -4.1250    0.0000 N   0  0  0  0  0  0  0  0  0  0  0  0
    4.2868   -4.1250    0.0000 C   0  0  0  0  0  0  0  0  0  0  0  0
    3.5724   -3.7125    0.0000 C   0  0  0  0  0  0  0  0  0  0  0  0
  1  2  1  0  0  0  0
  2  3  1  0  0  0  0
  3  4  1  0  0  0  0
  4  5  1  0  0  0  0
  5  6  1  0  0  0  0
  6  7  4  0  0  0  0
  7  8  4  0  0  0  0
  8  9  4  0  0  0  0
  9 10  1  0  0  0  0
  9 11  4  0  0  0  0
 11 12  4  0  0  0  0
  6 12  4  0  0  0  0
M  END
> <activity>
61.68164509

> <InChiKey>
UBRIHZOFEJHMIT-UHFFFAOYSA-N

$$$$

  Mrv2220 08292413012D          

  8  8  0  0  0  0            999 V2000
    0.7145    2.0625    0.0000 N   0  0  0  0  0  0  0  0  0  0  0  0
    0.7145    1.2375    0.0000 C   0  0  0  0  0  0  0  0  0  0  0  0
    1.4289    0.8250    0.0000 C   0  0  0  0  0  0  0  0  0  0  0  0
    1.4289   -0.0000    0.0000 C   0  0  0  0  0  0  0  0  0  0  0  0
    0.7145   -0.4125    0.0000 C   0  0  0  0  0  0  0  0  0  0  0  0
    0.7145   -1.2375    0.0000 Cl  0  0  0  0  0  0  0  0  0  0  0  0
    0.0000    0.0000    0.0000 C   0  0  0  0  0  0  0  0  0  0  0  0
    0.0000    0.8250    0.0000 C   0  0  0  0  0  0  0  0  0  0  0  0
  1  2  1  0  0  0  0
  2  3  4  0  0  0  0
  3  4  4  0  0  0  0
  4  5  4  0  0  0  0
  5  6  1  0  0  0  0
  5  7  4  0  0  0  0
  7  8  4  0  0  0  0
  2  8  4  0  0  0  0
M  END
> <activity>
47.91314244

> <InChiKey>
QSNSCYSYFYORTR-UHFFFAOYSA-N

$$$$

  Mrv2220 08292413012D          

 13 14  0  0  0  0            999 V2000
    0.7145   -0.4125    0.0000 O   0  0  0  0  0  0  0  0  0  0  0  0
    0.7145   -1.2375    0.0000 C   0  0  0  0  0  0  0  0  0  0  0  0
    1.4289   -1.6500    0.0000 C   0  0  0  0  0  0  0  0  0  0  0  0
    1.4289   -2.4750    0.0000 C   0  0  0  0  0  0  0  0  0  0  0  0
    0.7145   -2.8875    0.0000 C   0  0  0  0  0  0  0  0  0  0  0  0
    0.7145   -3.7125    0.0000 C   0  0  0  0  0  0  0  0  0  0  0  0
    1.4289   -4.1250    0.0000 C   0  0  0  0  0  0  0  0  0  0  0  0
    1.4289   -4.9500    0.0000 C   0  0  0  0  0  0  0  0  0  0  0  0
    0.7145   -5.3625    0.0000 C   0  0  0  0  0  0  0  0  0  0  0  0
    0.0000   -4.9500    0.0000 C   0  0  0  0  0  0  0  0  0  0  0  0
    0.0000   -4.1250    0.0000 C   0  0  0  0  0  0  0  0  0  0  0  0
    0.0000   -2.4750    0.0000 C   0  0  0  0  0  0  0  0  0  0  0  0
    0.0000   -1.6500    0.0000 C   0  0  0  0  0  0  0  0  0  0  0  0
  1  2  1  0  0  0  0
  2  3  1  0  0  0  0
  3  4  1  0  0  0  0
  4  5  1  0  0  0  0
  5  6  1  0  0  0  0
  6  7  1  0  0  0  0
  7  8  1  0  0  0  0
  8  9  1  0  0  0  0
  9 10  1  0  0  0  0
 10 11  1  0  0  0  0
  6 11  1  0  0  0  0
  5 12  1  0  0  0  0
 12 13  1  0  0  0  0
  2 13  1  0  0  0  0
M  END
> <activity>
82.66215692

> <InChiKey>
AFKMHDZOVNDWLO-UHFFFAOYSA-N

$$$$

  Mrv2220 08292413012D          

 29 31  0  0  0  0            999 V2000
   -5.7158   -4.9500    0.0000 C   0  0  0  0  0  0  0  0  0  0  0  0
   -5.0013   -5.3625    0.0000 C   0  0  0  0  0  0  0  0  0  0  0  0
   -5.0013   -6.1875    0.0000 C   0  0  0  0  0  0  0  0  0  0  0  0
   -4.2868   -6.6000    0.0000 C   0  0  0  0  0  0  0  0  0  0  0  0
   -4.2868   -7.4250    0.0000 C   0  0  0  0  0  0  0  0  0  0  0  0
   -3.5724   -7.8375    0.0000 C   0  0  0  0  0  0  0  0  0  0  0  0
   -3.5724   -8.6625    0.0000 C   0  0  0  0  0  0  0  0  0  0  0  0
   -4.2868   -9.0750    0.0000 C   0  0  0  0  0  0  0  0  0  0  0  0
   -4.2868   -9.9000    0.0000 O   0  0  0  0  0  0  0  0  0  0  0  0
   -5.0013   -8.6625    0.0000 C   0  0  0  0  0  0  0  0  0  0  0  0
   -5.0013   -7.8375    0.0000 C   0  0  0  0  0  0  0  0  0  0  0  0
   -3.5724   -6.1875    0.0000 C   0  0  0  0  0  0  0  0  0  0  0  0
   -3.5724   -5.3625    0.0000 C   0  0  0  0  0  0  0  0  0  0  0  0
   -2.8579   -4.9500    0.0000 C   0  0  0  0  0  0  0  0  0  0  0  0
   -2.1434   -5.3625    0.0000 C   0  0  0  0  0  0  0  0  0  0  0  0
   -1.4289   -4.9500    0.0000 O   0  0  0  0  0  0  0  0  0  0  0  0
   -0.7145   -5.3625    0.0000 C   0  0  0  0  0  0  0  0  0  0  0  0
    0.0000   -4.9500    0.0000 C   0  0  0  0  0  0  0  0  0  0  0  0
    0.7145   -5.3625    0.0000 N   0  0  0  0  0  0  0  0  0  0  0  0
    1.4289   -4.9500    0.0000 C   0  0  0  0  0  0  0  0  0  0  0  0
    0.7145   -6.1875    0.0000 C   0  0  0  0  0  0  0  0  0  0  0  0
   -2.1434   -6.1875    0.0000 C   0  0  0  0  0  0  0  0  0  0  0  0
   -2.8579   -6.6000    0.0000 C   0  0  0  0  0  0  0  0  0  0  0  0
   -5.7158   -6.6000    0.0000 C   0  0  0  0  0  0  0  0  0  0  0  0
   -5.7158   -7.4250    0.0000 C   0  0  0  0  0  0  0  0  0  0  0  0
   -6.4302   -7.8375    0.0000 C   0  0  0  0  0  0  0  0  0  0  0  0
   -7.1447   -7.4250    0.0000 C   0  0  0  0  0  0  0  0  0  0  0  0
   -7.1447   -6.6000    0.0000 C   0  0  0  0  0  0  0  0  0  0  0  0
   -6.4302   -6.1875    0.0000 C   0  0  0  0  0  0  0  0  0  0  0  0
  1  2  1  0  0  0  0
  3  2  1  4  0  0  0
  3  4  2  0  0  0  0
  4  5  1  0  0  0  0
  5  6  4  0  0  0  0
  6  7  4  0  0  0  0
  7  8  4  0  0  0  0
  8  9  1  0  0  0  0
  8 10  4  0  0  0  0
 10 11  4  0  0  0  0
  5 11  4  0  0  0  0
  4 12  1  0  0  0  0
 12 13  4  0  0  0  0
 13 14  4  0  0  0  0
 14 15  4  0  0  0  0
 15 16  1  0  0  0  0
 16 17  1  0  0  0  0
 17 18  1  0  0  0  0
 18 19  1  0  0  0  0
 19 20  1  0  0  0  0
 19 21  1  0  0  0  0
 15 22  4  0  0  0  0
 22 23  4  0  0  0  0
 12 23  4  0  0  0  0
  3 24  1  0  0  0  0
 24 25  4  0  0  0  0
 25 26  4  0  0  0  0
 26 27  4  0  0  0  0
 27 28  4  0  0  0  0
 28 29  4  0  0  0  0
 24 29  4  0  0  0  0
M  END
> <activity>
4.826103947

> <InChiKey>
TXUZVZSFRXZGTL-UHFFFAOYSA-N

$$$$

  Mrv2220 08292413012D          

  9  9  0  0  0  0            999 V2000
    0.0000    2.4750    0.0000 C   0  0  0  0  0  0  0  0  0  0  0  0
    0.7145    2.0625    0.0000 O   0  0  0  0  0  0  0  0  0  0  0  0
    0.7145    1.2375    0.0000 C   0  0  0  0  0  0  0  0  0  0  0  0
    1.4289    0.8250    0.0000 C   0  0  0  0  0  0  0  0  0  0  0  0
    1.4289   -0.0000    0.0000 C   0  0  0  0  0  0  0  0  0  0  0  0
    0.7145   -0.4125    0.0000 C   0  0  0  0  0  0  0  0  0  0  0  0
    0.7145   -1.2375    0.0000 O   0  0  0  0  0  0  0  0  0  0  0  0
    0.0000    0.0000    0.0000 C   0  0  0  0  0  0  0  0  0  0  0  0
    0.0000    0.8250    0.0000 C   0  0  0  0  0  0  0  0  0  0  0  0
  1  2  1  0  0  0  0
  2  3  1  0  0  0  0
  3  4  4  0  0  0  0
  4  5  4  0  0  0  0
  5  6  4  0  0  0  0
  6  7  1  0  0  0  0
  6  8  4  0  0  0  0
  8  9  4  0  0  0  0
  3  9  4  0  0  0  0
M  END
> <activity>
21.41267072

> <InChiKey>
NWVVVBRKAWDGAB-UHFFFAOYSA-N

$$$$

  Mrv2220 08292413012D          

  7  7  0  0  0  0            999 V2000
    0.7145    2.0625    0.0000 C   0  0  0  0  0  0  0  0  0  0  0  0
    0.7145    1.2375    0.0000 N   0  0  0  0  0  0  0  0  0  0  0  0
    1.4289    0.8250    0.0000 C   0  0  0  0  0  0  0  0  0  0  0  0
    1.4289   -0.0000    0.0000 C   0  0  0  0  0  0  0  0  0  0  0  0
    0.7145   -0.4125    0.0000 O   0  0  0  0  0  0  0  0  0  0  0  0
    0.0000    0.0000    0.0000 C   0  0  0  0  0  0  0  0  0  0  0  0
    0.0000    0.8250    0.0000 C   0  0  0  0  0  0  0  0  0  0  0  0
  1  2  1  0  0  0  0
  2  3  1  0  0  0  0
  3  4  1  0  0  0  0
  4  5  1  0  0  0  0
  5  6  1  0  0  0  0
  6  7  1  0  0  0  0
  2  7  1  0  0  0  0
M  END
> <activity>
19.68054397

> <InChiKey>
SJRJJKPEHAURKC-UHFFFAOYSA-N

$$$$

  Mrv2220 08292413012D          

 10 10  0  0  0  0            999 V2000
   -0.7145    3.7125    0.0000 N   0  0  0  0  0  0  0  0  0  0  0  0
    0.0000    3.3000    0.0000 C   0  0  0  0  0  0  0  0  0  0  0  0
    0.0000    2.4750    0.0000 C   0  0  0  0  0  0  0  0  0  0  0  0
    0.7145    2.0625    0.0000 C   0  0  0  0  0  0  0  0  0  0  0  0
    0.7145    1.2375    0.0000 N   0  0  0  0  0  0  0  0  0  0  0  0
    1.4289    0.8250    0.0000 C   0  0  0  0  0  0  0  0  0  0  0  0
    1.4289   -0.0000    0.0000 C   0  0  0  0  0  0  0  0  0  0  0  0
    0.7145   -0.4125    0.0000 O   0  0  0  0  0  0  0  0  0  0  0  0
    0.0000    0.0000    0.0000 C   0  0  0  0  0  0  0  0  0  0  0  0
    0.0000    0.8250    0.0000 C   0  0  0  0  0  0  0  0  0  0  0  0
  1  2  1  0  0  0  0
  2  3  1  0  0  0  0
  3  4  1  0  0  0  0
  4  5  1  0  0  0  0
  5  6  1  0  0  0  0
  6  7  1  0  0  0  0
  7  8  1  0  0  0  0
  8  9  1  0  0  0  0
  9 10  1  0  0  0  0
  5 10  1  0  0  0  0
M  END
> <activity>
7.328752215

> <InChiKey>
UIKUBYKUYUSRSM-UHFFFAOYSA-N

$$$$

  Mrv2220 08292413012D          

 10 10  0  0  0  0            999 V2000
    0.0000    3.3000    0.0000 C   0  0  0  0  0  0  0  0  0  0  0  0
    0.0000    2.4750    0.0000 C   0  0  0  0  0  0  0  0  0  0  0  0
    0.7145    2.0625    0.0000 C   0  0  0  0  0  0  0  0  0  0  0  0
    0.7145    1.2375    0.0000 C   0  0  0  0  0  0  0  0  0  0  0  0
    1.4289    0.8250    0.0000 C   0  0  0  0  0  0  0  0  0  0  0  0
    1.4289   -0.0000    0.0000 C   0  0  0  0  0  0  0  0  0  0  0  0
    0.7145   -0.4125    0.0000 C   0  0  0  0  0  0  0  0  0  0  0  0
    0.7145   -1.2375    0.0000 N   0  0  0  0  0  0  0  0  0  0  0  0
    0.0000    0.0000    0.0000 C   0  0  0  0  0  0  0  0  0  0  0  0
    0.0000    0.8250    0.0000 C   0  0  0  0  0  0  0  0  0  0  0  0
  1  2  1  0  0  0  0
  2  3  1  0  0  0  0
  3  4  1  0  0  0  0
  4  5  4  0  0  0  0
  5  6  4  0  0  0  0
  6  7  4  0  0  0  0
  7  8  1  0  0  0  0
  7  9  4  0  0  0  0
  9 10  4  0  0  0  0
  4 10  4  0  0  0  0
M  END
> <activity>
35.16247601

> <InChiKey>
OAPDPORYXWQVJE-UHFFFAOYSA-N

$$$$

  Mrv2220 08292413012D          

 12 13  0  0  0  0            999 V2000
    0.0000   -2.4750    0.0000 C   0  0  0  0  0  0  0  0  0  0  0  0
    0.0000   -1.6500    0.0000 C   0  0  0  0  0  0  0  0  0  0  0  0
    0.7145   -1.2375    0.0000 C   0  0  0  0  0  0  0  0  0  0  0  0
    0.7145   -0.4125    0.0000 C   0  0  0  0  0  0  0  0  0  0  0  0
    0.0000    0.0000    0.0000 C   0  0  0  0  0  0  0  0  0  0  0  0
    0.0000    0.8250    0.0000 C   0  0  0  0  0  0  0  0  0  0  0  0
    0.7145    1.2375    0.0000 N   0  0  0  0  0  0  0  0  0  0  0  0
    1.4289    0.8250    0.0000 C   0  0  0  0  0  0  0  0  0  0  0  0
    1.4289   -0.0000    0.0000 C   0  0  0  0  0  0  0  0  0  0  0  0
    1.4289   -1.6500    0.0000 C   0  0  0  0  0  0  0  0  0  0  0  0
    1.4289   -2.4750    0.0000 C   0  0  0  0  0  0  0  0  0  0  0  0
    0.7145   -2.8875    0.0000 N   0  0  0  0  0  0  0  0  0  0  0  0
  1  2  4  0  0  0  0
  2  3  4  0  0  0  0
  3  4  1  0  0  0  0
  4  5  4  0  0  0  0
  5  6  4  0  0  0  0
  6  7  4  0  0  0  0
  7  8  4  0  0  0  0
  8  9  4  0  0  0  0
  4  9  4  0  0  0  0
  3 10  4  0  0  0  0
 10 11  4  0  0  0  0
 11 12  4  0  0  0  0
  1 12  4  0  0  0  0
M  END
> <activity>
36.58913468

> <InChiKey>
MWVTWFVJZLCBMC-UHFFFAOYSA-N

$$$$

  Mrv2220 08292413012D          

 17 18  0  0  0  0            999 V2000
    1.5395   -1.2375    0.0000 O   0  0  0  0  0  0  0  0  0  0  0  0
    0.7145   -1.2375    0.0000 S   0  0  0  0  0  0  0  0  0  0  0  0
   -0.1105   -1.2375    0.0000 O   0  0  0  0  0  0  0  0  0  0  0  0
    0.7145   -2.0625    0.0000 C   0  0  0  0  0  0  0  0  0  0  0  0
    1.4289   -2.4750    0.0000 C   0  0  0  0  0  0  0  0  0  0  0  0
    1.4289   -3.3000    0.0000 C   0  0  0  0  0  0  0  0  0  0  0  0
    0.7145   -3.7125    0.0000 C   0  0  0  0  0  0  0  0  0  0  0  0
    0.7145   -4.5375    0.0000 Cl  0  0  0  0  0  0  0  0  0  0  0  0
    0.0000   -3.3000    0.0000 C   0  0  0  0  0  0  0  0  0  0  0  0
    0.0000   -2.4750    0.0000 C   0  0  0  0  0  0  0  0  0  0  0  0
    0.7145   -0.4125    0.0000 C   0  0  0  0  0  0  0  0  0  0  0  0
    0.0000    0.0000    0.0000 C   0  0  0  0  0  0  0  0  0  0  0  0
    0.0000    0.8250    0.0000 C   0  0  0  0  0  0  0  0  0  0  0  0
    0.7145    1.2375    0.0000 C   0  0  0  0  0  0  0  0  0  0  0  0
    0.7145    2.0625    0.0000 Cl  0  0  0  0  0  0  0  0  0  0  0  0
    1.4289    0.8250    0.0000 C   0  0  0  0  0  0  0  0  0  0  0  0
    1.4289   -0.0000    0.0000 C   0  0  0  0  0  0  0  0  0  0  0  0
  1  2  2  0  0  0  0
  2  3  2  0  0  0  0
  2  4  1  0  0  0  0
  4  5  4  0  0  0  0
  5  6  4  0  0  0  0
  6  7  4  0  0  0  0
  7  8  1  0  0  0  0
  7  9  4  0  0  0  0
  9 10  4  0  0  0  0
  4 10  4  0  0  0  0
  2 11  1  0  0  0  0
 11 12  4  0  0  0  0
 12 13  4  0  0  0  0
 13 14  4  0  0  0  0
 14 15  1  0  0  0  0
 14 16  4  0  0  0  0
 16 17  4  0  0  0  0
 11 17  4  0  0  0  0
M  END
> <activity>
32.24124406

> <InChiKey>
GPAPPPVRLPGFEQ-UHFFFAOYSA-N

$$$$

  Mrv2220 08292413012D          

 23 24  0  0  0  0            999 V2000
    1.4289    0.0000    0.0000 C   0  0  0  0  0  0  0  0  0  0  0  0
    2.1434   -0.4125    0.0000 C   0  0  0  0  0  0  0  0  0  0  0  0
    2.1434   -1.2375    0.0000 C   0  0  0  0  0  0  0  0  0  0  0  0
    2.8579   -1.6500    0.0000 C   0  0  0  0  0  0  0  0  0  0  0  0
    2.8579   -2.4750    0.0000 C   0  0  0  0  0  0  0  0  0  0  0  0
    3.5724   -2.8875    0.0000 C   0  0  0  0  0  0  0  0  0  0  0  0
    3.5724   -3.7125    0.0000 C   0  0  0  0  0  0  0  0  0  0  0  0
    4.2868   -4.1250    0.0000 C   0  0  0  0  0  0  0  0  0  0  0  0
    4.2868   -4.9500    0.0000 C   0  0  0  0  0  0  0  0  0  0  0  0
    5.0013   -5.3625    0.0000 C   0  0  0  0  0  0  0  0  0  0  0  0
    5.7158   -4.9500    0.0000 C   0  0  0  0  0  0  0  0  0  0  0  0
    3.5724   -5.3625    0.0000 C   0  0  0  0  0  0  0  0  0  0  0  0
    3.5724   -6.1875    0.0000 N   0  0  0  0  0  0  0  0  0  0  0  0
    2.8579   -4.9500    0.0000 C   0  0  0  0  0  0  0  0  0  0  0  0
    2.1434   -5.3625    0.0000 C   0  0  0  0  0  0  0  0  0  0  0  0
    1.4289   -4.9500    0.0000 C   0  0  0  0  0  0  0  0  0  0  0  0
    2.8579   -4.1250    0.0000 C   0  0  0  0  0  0  0  0  0  0  0  0
    2.1434   -2.8875    0.0000 C   0  0  0  0  0  0  0  0  0  0  0  0
    1.4289   -2.4750    0.0000 C   0  0  0  0  0  0  0  0  0  0  0  0
    0.7145   -2.8875    0.0000 C   0  0  0  0  0  0  0  0  0  0  0  0
    0.0000   -2.4750    0.0000 C   0  0  0  0  0  0  0  0  0  0  0  0
    1.4289   -1.6500    0.0000 C   0  0  0  0  0  0  0  0  0  0  0  0
    0.7145   -1.2375    0.0000 N   0  0  0  0  0  0  0  0  0  0  0  0
  1  2  1  0  0  0  0
  2  3  1  0  0  0  0
  3  4  4  0  0  0  0
  4  5  4  0  0  0  0
  5  6  1  0  0  0  0
  6  7  1  0  0  0  0
  7  8  4  0  0  0  0
  8  9  4  0  0  0  0
  9 10  1  0  0  0  0
 10 11  1  0  0  0  0
  9 12  4  0  0  0  0
 12 13  1  0  0  0  0
 12 14  4  0  0  0  0
 14 15  1  0  0  0  0
 15 16  1  0  0  0  0
 14 17  4  0  0  0  0
  7 17  4  0  0  0  0
  5 18  4  0  0  0  0
 18 19  4  0  0  0  0
 19 20  1  0  0  0  0
 20 21  1  0  0  0  0
 19 22  4  0  0  0  0
  3 22  4  0  0  0  0
 22 23  1  0  0  0  0
M  END
> <activity>
43.36185941

> <InChiKey>
NWIVYGKSHSJHEF-UHFFFAOYSA-N

$$$$

  Mrv2220 08292413012D          

  8  8  0  0  0  0            999 V2000
    0.5678    1.9393    0.0000 C   0  0  0  0  0  0  0  0  0  0  0  0
    0.5678    1.1143    0.0000 N   0  0  0  0  0  0  0  0  0  0  0  0
    1.2352    0.6294    0.0000 S   0  0  0  0  0  0  0  0  0  0  0  0
    0.9803   -0.1553    0.0000 C   0  0  0  0  0  0  0  0  0  0  0  0
    1.4652   -0.8227    0.0000 Cl  0  0  0  0  0  0  0  0  0  0  0  0
    0.1553   -0.1553    0.0000 C   0  0  0  0  0  0  0  0  0  0  0  0
   -0.0997    0.6294    0.0000 C   0  0  0  0  0  0  0  0  0  0  0  0
   -0.8843    0.8843    0.0000 O   0  0  0  0  0  0  0  0  0  0  0  0
  1  2  1  0  0  0  0
  2  3  4  0  0  0  0
  3  4  4  0  0  0  0
  4  5  1  0  0  0  0
  4  6  4  0  0  0  0
  6  7  4  0  0  0  0
  2  7  4  0  0  0  0
  7  8  2  0  0  0  0
M  END
> <activity>
11.55946256

> <InChiKey>
DHNRXBZYEKSXIM-UHFFFAOYSA-N

$$$$

  Mrv2220 08292413012D          

 11 12  0  0  0  0            999 V2000
    2.7845    0.6979    0.0000 N   0  0  0  0  0  0  0  0  0  0  0  0
    2.0701    1.1104    0.0000 C   0  0  0  0  0  0  0  0  0  0  0  0
    1.3556    0.6979    0.0000 N   0  0  0  0  0  0  0  0  0  0  0  0
    0.6411    1.1104    0.0000 C   0  0  0  0  0  0  0  0  0  0  0  0
   -0.1435    0.8555    0.0000 N   0  0  0  0  0  0  0  0  0  0  0  0
   -0.6284    1.5229    0.0000 C   0  0  0  0  0  0  0  0  0  0  0  0
   -0.1435    2.1904    0.0000 N   0  0  0  0  0  0  0  0  0  0  0  0
    0.6411    1.9354    0.0000 C   0  0  0  0  0  0  0  0  0  0  0  0
    1.3556    2.3479    0.0000 C   0  0  0  0  0  0  0  0  0  0  0  0
    1.3556    3.1729    0.0000 S   0  0  0  0  0  0  0  0  0  0  0  0
    2.0701    1.9354    0.0000 N   0  0  0  0  0  0  0  0  0  0  0  0
  1  2  1  0  0  0  0
  2  3  4  0  0  0  0
  3  4  4  0  0  0  0
  4  5  4  0  0  0  0
  5  6  4  0  0  0  0
  6  7  4  0  0  0  0
  7  8  4  0  0  0  0
  4  8  4  0  0  0  0
  8  9  4  0  0  0  0
  9 10  2  0  0  0  0
  9 11  4  0  0  0  0
  2 11  4  0  0  0  0
M  STY  2   1 DAT   2 DAT
M  SAL   1  1   7
M  SDT   1 MRV_IMPLICIT_H                                        
M  SDD   1     0.5304   -0.4125    DR    ALL  0       0  
M  SED   1 IMPL_H1
M  SAL   2  1  11
M  SDT   2 MRV_IMPLICIT_H                                        
M  SDD   2     0.5304   -0.4125    DR    ALL  0       0  
M  SED   2 IMPL_H1
M  END
> <activity>
11.88592199

> <InChiKey>
WYWHKKSPHMUBEB-UHFFFAOYSA-N

$$$$

  Mrv2220 08292413012D          

  4  3  0  0  0  0            999 V2000
    2.0625   -0.7145    0.0000 C   0  0  0  0  0  0  0  0  0  0  0  0
    1.6500   -0.0000    0.0000 C   0  0  0  0  0  0  0  0  0  0  0  0
    0.8250    0.0000    0.0000 C   0  0  0  0  0  0  0  0  0  0  0  0
    0.0000    0.0000    0.0000 N   0  0  0  0  0  0  0  0  0  0  0  0
  1  2  2  0  0  0  0
  2  3  1  0  0  0  0
  3  4  3  0  0  0  0
M  END
> <activity>
79.83144095

> <InChiKey>
NLHHRLWOUZZQLW-UHFFFAOYSA-N

$$$$

  Mrv2220 08292413012D          

  6  5  0  0  0  0            999 V2000
    2.4750   -1.4289    0.0000 C   0  0  0  0  0  0  0  0  0  0  0  0
    2.0625   -0.7145    0.0000 C   0  0  0  0  0  0  0  0  0  0  0  0
    1.2375   -0.7145    0.0000 C   0  0  0  0  0  0  0  0  0  0  0  0
    0.8250    0.0000    0.0000 N   0  0  0  0  0  0  0  0  0  0  0  0
    0.0000    0.0000    0.0000 C   0  0  0  0  0  0  0  0  0  0  0  0
   -0.8250   -0.0000    0.0000 S   0  0  0  0  0  0  0  0  0  0  0  0
  1  2  2  0  0  0  0
  2  3  1  0  0  0  0
  3  4  1  0  0  0  0
  4  5  2  0  0  0  0
  5  6  2  0  0  0  0
M  END
> <activity>
11.238935

> <InChiKey>
ZOJBYZNEUISWFT-UHFFFAOYSA-N

$$$$

  Mrv2220 08292413012D          

 17 18  0  0  0  0            999 V2000
    1.5269   -0.5558    0.0000 C   0  0  0  0  0  0  0  0  0  0  0  0
    0.7145   -0.4125    0.0000 C   0  0  0  0  0  0  0  0  0  0  0  0
    0.1842   -1.0445    0.0000 C   0  0  0  0  0  0  0  0  0  0  0  0
   -0.3461   -0.4125    0.0000 C   0  0  0  0  0  0  0  0  0  0  0  0
   -1.1586   -0.5558    0.0000 C   0  0  0  0  0  0  0  0  0  0  0  0
   -1.6889    0.0762    0.0000 C   0  0  0  0  0  0  0  0  0  0  0  0
   -1.4067    0.8515    0.0000 C   0  0  0  0  0  0  0  0  0  0  0  0
   -1.9370    1.4835    0.0000 N   0  0  0  0  0  0  0  0  0  0  0  0
   -0.5943    0.9947    0.0000 C   0  0  0  0  0  0  0  0  0  0  0  0
   -0.0640    0.3627    0.0000 C   0  0  0  0  0  0  0  0  0  0  0  0
    0.8986   -1.4570    0.0000 C   0  0  0  0  0  0  0  0  0  0  0  0
    0.8986   -2.2820    0.0000 C   0  0  0  0  0  0  0  0  0  0  0  0
    0.1842   -2.6945    0.0000 C   0  0  0  0  0  0  0  0  0  0  0  0
    0.1842   -3.5195    0.0000 O   0  0  0  0  0  0  0  0  0  0  0  0
   -0.5303   -2.2820    0.0000 N   0  0  0  0  0  0  0  0  0  0  0  0
   -0.5303   -1.4570    0.0000 C   0  0  0  0  0  0  0  0  0  0  0  0
   -1.2448   -1.0445    0.0000 O   0  0  0  0  0  0  0  0  0  0  0  0
  1  2  1  0  0  0  0
  2  3  1  0  0  0  0
  3  4  1  0  0  0  0
  4  5  4  0  0  0  0
  5  6  4  0  0  0  0
  6  7  4  0  0  0  0
  7  8  1  0  0  0  0
  7  9  4  0  0  0  0
  9 10  4  0  0  0  0
  4 10  4  0  0  0  0
  3 11  1  0  0  0  0
 11 12  1  0  0  0  0
 12 13  1  0  0  0  0
 13 14  2  0  0  0  0
 13 15  1  0  0  0  0
 15 16  1  0  0  0  0
  3 16  1  0  0  0  0
 16 17  2  0  0  0  0
M  END
> <activity>
11.27842345

> <InChiKey>
ROBVIMPUHSLWNV-UHFFFAOYSA-N

$$$$

  Mrv2220 08292413012D          

 31 33  0  0  0  0            999 V2000
   -1.4289   -2.4750    0.0000 O   0  0  0  0  0  0  0  0  0  0  0  0
   -1.4289   -1.6500    0.0000 C   0  0  0  0  0  0  0  0  0  0  0  0
   -2.1434   -1.2375    0.0000 N   0  0  0  0  0  0  0  0  0  0  0  0
   -2.1434   -0.4125    0.0000 C   0  0  0  0  0  0  0  0  0  0  0  0
   -1.4289   -0.0000    0.0000 O   0  0  0  0  0  0  0  0  0  0  0  0
   -2.8579   -0.0000    0.0000 C   0  0  0  0  0  0  0  0  0  0  0  0
   -3.5724   -0.4125    0.0000 C   0  0  0  0  0  0  0  0  0  0  0  0
   -4.2868   -0.0000    0.0000 C   0  0  0  0  0  0  0  0  0  0  0  0
   -5.0013   -0.4125    0.0000 F   0  0  0  0  0  0  0  0  0  0  0  0
   -4.2868    0.8250    0.0000 C   0  0  0  0  0  0  0  0  0  0  0  0
   -5.0013    1.2375    0.0000 F   0  0  0  0  0  0  0  0  0  0  0  0
   -3.5724    1.2375    0.0000 C   0  0  0  0  0  0  0  0  0  0  0  0
   -2.8579    0.8250    0.0000 C   0  0  0  0  0  0  0  0  0  0  0  0
   -2.1434    1.2375    0.0000 Cl  0  0  0  0  0  0  0  0  0  0  0  0
   -0.7145   -1.2375    0.0000 N   0  0  0  0  0  0  0  0  0  0  0  0
    0.0000   -1.6500    0.0000 C   0  0  0  0  0  0  0  0  0  0  0  0
    0.0000   -2.4750    0.0000 C   0  0  0  0  0  0  0  0  0  0  0  0
    0.7145   -2.8875    0.0000 C   0  0  0  0  0  0  0  0  0  0  0  0
    0.7145   -3.7125    0.0000 F   0  0  0  0  0  0  0  0  0  0  0  0
    1.4289   -2.4750    0.0000 C   0  0  0  0  0  0  0  0  0  0  0  0
    1.4289   -1.6500    0.0000 C   0  0  0  0  0  0  0  0  0  0  0  0
    0.7145   -1.2375    0.0000 C   0  0  0  0  0  0  0  0  0  0  0  0
    0.7145   -0.4125    0.0000 N   0  0  0  0  0  0  0  0  0  0  0  0
    0.0000   -0.0000    0.0000 C   0  0  0  0  0  0  0  0  0  0  0  0
    0.0000    0.8250    0.0000 C   0  0  0  0  0  0  0  0  0  0  0  0
    0.7145    1.2375    0.0000 C   0  0  0  0  0  0  0  0  0  0  0  0
    0.7145    2.0625    0.0000 C   0  0  0  0  0  0  0  0  0  0  0  0
    0.0000    2.4750    0.0000 O   0  0  0  0  0  0  0  0  0  0  0  0
    1.4289    2.4750    0.0000 O   0  0  0  0  0  0  0  0  0  0  0  0
    1.4289    0.8250    0.0000 C   0  0  0  0  0  0  0  0  0  0  0  0
    1.4289   -0.0000    0.0000 C   0  0  0  0  0  0  0  0  0  0  0  0
  1  2  2  0  0  0  0
  2  3  1  0  0  0  0
  3  4  1  0  0  0  0
  4  5  2  0  0  0  0
  4  6  1  0  0  0  0
  6  7  4  0  0  0  0
  7  8  4  0  0  0  0
  8  9  1  0  0  0  0
  8 10  4  0  0  0  0
 10 11  1  0  0  0  0
 10 12  4  0  0  0  0
 12 13  4  0  0  0  0
  6 13  4  0  0  0  0
 13 14  1  0  0  0  0
  2 15  1  0  0  0  0
 15 16  1  0  0  0  0
 16 17  4  0  0  0  0
 17 18  4  0  0  0  0
 18 19  1  0  0  0  0
 18 20  4  0  0  0  0
 20 21  4  0  0  0  0
 21 22  4  0  0  0  0
 16 22  4  0  0  0  0
 22 23  1  0  0  0  0
 23 24  1  0  0  0  0
 24 25  1  0  0  0  0
 25 26  1  0  0  0  0
 26 27  1  0  0  0  0
 27 28  2  0  0  0  0
 27 29  1  0  0  0  0
 26 30  1  0  0  0  0
 30 31  1  0  0  0  0
 23 31  1  0  0  0  0
M  END
> <activity>
21.4705986

> <InChiKey>
KAJJGOCSAXKXBD-UHFFFAOYSA-N

$$$$

  Mrv2220 08292413012D          

 16 17  0  0  0  0            999 V2000
    0.0000   -1.6500    0.0000 C   0  0  0  0  0  0  0  0  0  0  0  0
    0.7145   -1.2375    0.0000 C   0  0  0  0  0  0  0  0  0  0  0  0
    0.7145   -0.4125    0.0000 C   0  0  0  0  0  0  0  0  0  0  0  0
    1.4289    0.0000    0.0000 O   0  0  0  0  0  0  0  0  0  0  0  0
    2.1434   -0.4125    0.0000 C   0  0  0  0  0  0  0  0  0  0  0  0
    2.8579    0.0000    0.0000 C   0  0  0  0  0  0  0  0  0  0  0  0
    3.5724   -0.4125    0.0000 C   0  0  0  0  0  0  0  0  0  0  0  0
    3.5724   -1.2375    0.0000 C   0  0  0  0  0  0  0  0  0  0  0  0
    2.8579   -1.6500    0.0000 C   0  0  0  0  0  0  0  0  0  0  0  0
    2.1434   -1.2375    0.0000 C   0  0  0  0  0  0  0  0  0  0  0  0
    1.4289   -1.6500    0.0000 N   0  0  0  0  0  0  0  0  0  0  0  0
    1.4289   -2.4750    0.0000 C   0  0  0  0  0  0  0  0  0  0  0  0
    2.1434   -2.8875    0.0000 O   0  0  0  0  0  0  0  0  0  0  0  0
    0.7145   -2.8875    0.0000 C   0  0  0  0  0  0  0  0  0  0  0  0
    0.7145   -3.7125    0.0000 Cl  0  0  0  0  0  0  0  0  0  0  0  0
    0.0000   -2.4750    0.0000 Cl  0  0  0  0  0  0  0  0  0  0  0  0
  1  2  1  0  0  0  0
  2  3  1  0  0  0  0
  3  4  1  0  0  0  0
  4  5  1  0  0  0  0
  5  6  4  0  0  0  0
  6  7  4  0  0  0  0
  7  8  4  0  0  0  0
  8  9  4  0  0  0  0
  9 10  4  0  0  0  0
  5 10  4  0  0  0  0
 10 11  1  0  0  0  0
  2 11  1  0  0  0  0
 11 12  1  0  0  0  0
 12 13  2  0  0  0  0
 12 14  1  0  0  0  0
 14 15  1  0  0  0  0
 14 16  1  0  0  0  0
M  END
> <activity>
31.68089716

> <InChiKey>
PFJJMJDEVDLPNE-UHFFFAOYSA-N

$$$$

  Mrv2220 08292413012D          

 21 23  0  0  0  0            999 V2000
   -2.1434   -3.7125    0.0000 C   0  0  0  0  0  0  0  0  0  0  0  0
   -2.1434   -2.8875    0.0000 O   0  0  0  0  0  0  0  0  0  0  0  0
   -1.4289   -2.4750    0.0000 C   0  0  0  0  0  0  0  0  0  0  0  0
   -1.4289   -1.6500    0.0000 C   0  0  0  0  0  0  0  0  0  0  0  0
   -0.7145   -1.2375    0.0000 C   0  0  0  0  0  0  0  0  0  0  0  0
    0.0000   -1.6500    0.0000 C   0  0  0  0  0  0  0  0  0  0  0  0
    0.7145   -1.2375    0.0000 C   0  0  0  0  0  0  0  0  0  0  0  0
    0.7145   -0.4125    0.0000 C   0  0  0  0  0  0  0  0  0  0  0  0
    1.4289    0.0000    0.0000 O   0  0  0  0  0  0  0  0  0  0  0  0
    2.1434   -0.4125    0.0000 C   0  0  0  0  0  0  0  0  0  0  0  0
    2.8579    0.0000    0.0000 C   0  0  0  0  0  0  0  0  0  0  0  0
    3.5724   -0.4125    0.0000 C   0  0  0  0  0  0  0  0  0  0  0  0
    4.2868   -0.0000    0.0000 O   0  0  0  0  0  0  0  0  0  0  0  0
    3.5724   -1.2375    0.0000 C   0  0  0  0  0  0  0  0  0  0  0  0
    2.8579   -1.6500    0.0000 C   0  0  0  0  0  0  0  0  0  0  0  0
    2.8579   -2.4750    0.0000 O   0  0  0  0  0  0  0  0  0  0  0  0
    2.1434   -1.2375    0.0000 C   0  0  0  0  0  0  0  0  0  0  0  0
    1.4289   -1.6500    0.0000 C   0  0  0  0  0  0  0  0  0  0  0  0
    1.4289   -2.4750    0.0000 O   0  0  0  0  0  0  0  0  0  0  0  0
    0.0000   -2.4750    0.0000 C   0  0  0  0  0  0  0  0  0  0  0  0
   -0.7145   -2.8875    0.0000 C   0  0  0  0  0  0  0  0  0  0  0  0
  1  2  1  0  0  0  0
  2  3  1  0  0  0  0
  3  4  4  0  0  0  0
  4  5  4  0  0  0  0
  5  6  4  0  0  0  0
  6  7  1  0  0  0  0
  7  8  4  0  0  0  0
  8  9  4  0  0  0  0
  9 10  4  0  0  0  0
 10 11  4  0  0  0  0
 11 12  4  0  0  0  0
 12 13  1  0  0  0  0
 12 14  4  0  0  0  0
 14 15  4  0  0  0  0
 15 16  1  0  0  0  0
 15 17  4  0  0  0  0
 10 17  4  0  0  0  0
 17 18  4  0  0  0  0
  7 18  4  0  0  0  0
 18 19  2  0  0  0  0
  6 20  4  0  0  0  0
 20 21  4  0  0  0  0
  3 21  4  0  0  0  0
M  END
> <activity>
100.6343086

> <InChiKey>
WUADCCWRTIWANL-UHFFFAOYSA-N

$$$$

  Mrv2220 08292413012D          

 29 32  0  0  0  0            999 V2000
    0.4243   -1.7779    0.0000 O   0  0  0  0  0  0  0  0  0  0  0  0
    1.1387   -1.3654    0.0000 S   0  0  0  0  0  0  0  0  0  0  0  0
    1.4743   -2.1191    0.0000 O   0  0  0  0  0  0  0  0  0  0  0  0
    0.6538   -0.6979    0.0000 O   0  0  0  0  0  0  0  0  0  0  0  0
    1.1387   -0.0305    0.0000 C   0  0  0  0  0  0  0  0  0  0  0  0
    0.4243    0.3820    0.0000 C   0  0  0  0  0  0  0  0  0  0  0  0
   -0.2902   -0.0305    0.0000 C   0  0  0  0  0  0  0  0  0  0  0  0
   -1.0047    0.3820    0.0000 C   0  0  0  0  0  0  0  0  0  0  0  0
   -1.7192   -0.0305    0.0000 Br  0  0  0  0  0  0  0  0  0  0  0  0
   -1.0047    1.2070    0.0000 C   0  0  0  0  0  0  0  0  0  0  0  0
   -1.7192    1.6195    0.0000 O   0  0  0  0  0  0  0  0  0  0  0  0
   -0.2902    1.6195    0.0000 C   0  0  0  0  0  0  0  0  0  0  0  0
   -0.2902    2.4445    0.0000 Br  0  0  0  0  0  0  0  0  0  0  0  0
    0.4243    1.2070    0.0000 C   0  0  0  0  0  0  0  0  0  0  0  0
    1.4743    0.7232    0.0000 C   0  0  0  0  0  0  0  0  0  0  0  0
    0.9894    1.3906    0.0000 C   0  0  0  0  0  0  0  0  0  0  0  0
    1.3249    2.1443    0.0000 C   0  0  0  0  0  0  0  0  0  0  0  0
    0.8400    2.8117    0.0000 Br  0  0  0  0  0  0  0  0  0  0  0  0
    2.1454    2.2305    0.0000 C   0  0  0  0  0  0  0  0  0  0  0  0
    2.4810    2.9842    0.0000 O   0  0  0  0  0  0  0  0  0  0  0  0
    2.6303    1.5631    0.0000 C   0  0  0  0  0  0  0  0  0  0  0  0
    3.4508    1.6493    0.0000 Br  0  0  0  0  0  0  0  0  0  0  0  0
    2.2948    0.8094    0.0000 C   0  0  0  0  0  0  0  0  0  0  0  0
    1.9233   -0.2854    0.0000 C   0  0  0  0  0  0  0  0  0  0  0  0
    2.6378    0.1271    0.0000 C   0  0  0  0  0  0  0  0  0  0  0  0
    3.3523   -0.2854    0.0000 C   0  0  0  0  0  0  0  0  0  0  0  0
    3.3523   -1.1104    0.0000 C   0  0  0  0  0  0  0  0  0  0  0  0
    2.6378   -1.5229    0.0000 C   0  0  0  0  0  0  0  0  0  0  0  0
    1.9233   -1.1104    0.0000 C   0  0  0  0  0  0  0  0  0  0  0  0
  1  2  2  0  0  0  0
  2  3  2  0  0  0  0
  2  4  1  0  0  0  0
  4  5  1  0  0  0  0
  5  6  1  0  0  0  0
  6  7  4  0  0  0  0
  7  8  4  0  0  0  0
  8  9  1  0  0  0  0
  8 10  4  0  0  0  0
 10 11  1  0  0  0  0
 10 12  4  0  0  0  0
 12 13  1  0  0  0  0
 12 14  4  0  0  0  0
  6 14  4  0  0  0  0
  5 15  1  0  0  0  0
 15 16  4  0  0  0  0
 16 17  4  0  0  0  0
 17 18  1  0  0  0  0
 17 19  4  0  0  0  0
 19 20  1  0  0  0  0
 19 21  4  0  0  0  0
 21 22  1  0  0  0  0
 21 23  4  0  0  0  0
 15 23  4  0  0  0  0
  5 24  1  0  0  0  0
 24 25  4  0  0  0  0
 25 26  4  0  0  0  0
 26 27  4  0  0  0  0
 27 28  4  0  0  0  0
 28 29  4  0  0  0  0
 24 29  4  0  0  0  0
  2 29  1  0  0  0  0
M  END
> <activity>
102.2260995

> <InChiKey>
UDSAIICHUKSCKT-UHFFFAOYSA-N

$$$$

  Mrv2220 08292413012D          

 21 22  0  0  0  0            999 V2000
    0.0000   -0.0000    0.0000 C   0  0  0  0  0  0  0  0  0  0  0  0
    0.7145   -0.4125    0.0000 C   0  0  0  0  0  0  0  0  0  0  0  0
    1.4289    0.0000    0.0000 C   0  0  0  0  0  0  0  0  0  0  0  0
    0.7145   -1.2375    0.0000 N   0  0  0  0  0  0  0  0  0  0  0  0
    1.4289   -1.6500    0.0000 C   0  0  0  0  0  0  0  0  0  0  0  0
    2.1434   -1.2375    0.0000 O   0  0  0  0  0  0  0  0  0  0  0  0
    1.4289   -2.4750    0.0000 N   0  0  0  0  0  0  0  0  0  0  0  0
    2.1434   -2.8875    0.0000 C   0  0  0  0  0  0  0  0  0  0  0  0
    2.8579   -2.4750    0.0000 C   0  0  0  0  0  0  0  0  0  0  0  0
    3.5724   -2.8875    0.0000 C   0  0  0  0  0  0  0  0  0  0  0  0
    3.5724   -3.7125    0.0000 C   0  0  0  0  0  0  0  0  0  0  0  0
    2.8579   -4.1250    0.0000 C   0  0  0  0  0  0  0  0  0  0  0  0
    2.1434   -3.7125    0.0000 C   0  0  0  0  0  0  0  0  0  0  0  0
    0.7145   -2.8875    0.0000 C   0  0  0  0  0  0  0  0  0  0  0  0
    0.0000   -2.4750    0.0000 S   0  0  0  0  0  0  0  0  0  0  0  0
    0.0000   -1.6500    0.0000 C   0  0  0  0  0  0  0  0  0  0  0  0
   -0.7145   -1.2375    0.0000 N   0  0  0  0  0  0  0  0  0  0  0  0
   -1.4289   -1.6500    0.0000 C   0  0  0  0  0  0  0  0  0  0  0  0
   -2.1434   -2.0625    0.0000 C   0  0  0  0  0  0  0  0  0  0  0  0
   -1.8414   -0.9355    0.0000 C   0  0  0  0  0  0  0  0  0  0  0  0
   -1.0164   -2.3645    0.0000 C   0  0  0  0  0  0  0  0  0  0  0  0
  1  2  1  0  0  0  0
  2  3  1  0  0  0  0
  2  4  1  0  0  0  0
  4  5  1  0  0  0  0
  5  6  2  0  0  0  0
  5  7  1  0  0  0  0
  7  8  1  0  0  0  0
  8  9  4  0  0  0  0
  9 10  4  0  0  0  0
 10 11  4  0  0  0  0
 11 12  4  0  0  0  0
 12 13  4  0  0  0  0
  8 13  4  0  0  0  0
  7 14  1  0  0  0  0
 14 15  1  0  0  0  0
 15 16  1  0  0  0  0
  4 16  1  0  0  0  0
 16 17  2  0  0  0  0
 17 18  1  4  0  0  0
 18 19  1  0  0  0  0
 18 20  1  0  0  0  0
 18 21  1  0  0  0  0
M  END
> <activity>
61.37356636

> <InChiKey>
PRLVTUNWOQKEAI-UHFFFAOYSA-N

$$$$

  Mrv2220 08292413012D          

 21 21  0  0  0  0            999 V2000
    2.1434    3.7125    0.0000 C   0  0  0  0  0  0  0  0  0  0  0  0
    1.4289    3.3000    0.0000 C   0  0  0  0  0  0  0  0  0  0  0  0
    1.4289    2.4750    0.0000 C   0  0  0  0  0  0  0  0  0  0  0  0
    2.1434    2.0625    0.0000 C   0  0  0  0  0  0  0  0  0  0  0  0
    0.7145    2.0625    0.0000 N   0  0  0  0  0  0  0  0  0  0  0  0
    0.7145    1.2375    0.0000 C   0  0  0  0  0  0  0  0  0  0  0  0
    1.4289    0.8250    0.0000 C   0  0  0  0  0  0  0  0  0  0  0  0
    2.1434    1.2375    0.0000 N   0  3  0  0  0  0  0  0  0  0  0  0
    2.8579    0.8250    0.0000 O   0  0  0  0  0  0  0  0  0  0  0  0
    2.6283    1.9049    0.0000 O   0  5  0  0  0  0  0  0  0  0  0  0
    1.4289   -0.0000    0.0000 C   0  0  0  0  0  0  0  0  0  0  0  0
    0.7145   -0.4125    0.0000 C   0  0  0  0  0  0  0  0  0  0  0  0
    0.7145   -1.2375    0.0000 C   0  0  0  0  0  0  0  0  0  0  0  0
    0.7145   -2.0625    0.0000 C   0  0  0  0  0  0  0  0  0  0  0  0
   -0.1105   -1.2375    0.0000 C   0  0  0  0  0  0  0  0  0  0  0  0
    1.5395   -1.2375    0.0000 C   0  0  0  0  0  0  0  0  0  0  0  0
    0.0000    0.0000    0.0000 C   0  0  0  0  0  0  0  0  0  0  0  0
    0.0000    0.8250    0.0000 C   0  0  0  0  0  0  0  0  0  0  0  0
   -0.7145    1.2375    0.0000 N   0  3  0  0  0  0  0  0  0  0  0  0
   -0.7145    2.0625    0.0000 O   0  0  0  0  0  0  0  0  0  0  0  0
   -1.4289    0.8250    0.0000 O   0  5  0  0  0  0  0  0  0  0  0  0
  1  2  1  0  0  0  0
  2  3  1  0  0  0  0
  3  4  1  0  0  0  0
  3  5  1  0  0  0  0
  5  6  1  0  0  0  0
  6  7  4  0  0  0  0
  7  8  1  0  0  0  0
  8  9  2  0  0  0  0
  8 10  1  0  0  0  0
  7 11  4  0  0  0  0
 11 12  4  0  0  0  0
 12 13  1  0  0  0  0
 13 14  1  0  0  0  0
 13 15  1  0  0  0  0
 13 16  1  0  0  0  0
 12 17  4  0  0  0  0
 17 18  4  0  0  0  0
  6 18  4  0  0  0  0
 18 19  1  0  0  0  0
 19 20  2  0  0  0  0
 19 21  1  0  0  0  0
M  CHG  4   8   1  10  -1  19   1  21  -1
M  END
> <activity>
73.41149411

> <InChiKey>
SPNQRCTZKIBOAX-UHFFFAOYSA-N

$$$$

  Mrv2220 08292413012D          

 31 33  0  0  0  0            999 V2000
    1.4289   -4.9500    0.0000 C   0  0  0  0  0  0  0  0  0  0  0  0
    2.1434   -5.3625    0.0000 O   0  0  0  0  0  0  0  0  0  0  0  0
    2.1434   -6.1875    0.0000 C   0  0  0  0  0  0  0  0  0  0  0  0
    2.8579   -6.6000    0.0000 C   0  0  0  0  0  0  0  0  0  0  0  0
    2.8579   -7.4250    0.0000 C   0  0  0  0  0  0  0  0  0  0  0  0
    2.1434   -7.8375    0.0000 C   0  0  0  0  0  0  0  0  0  0  0  0
    2.1434   -8.6625    0.0000 N   0  0  0  0  0  0  0  0  0  0  0  0
    2.8579   -9.0750    0.0000 N   0  0  0  0  0  0  0  0  0  0  0  0
    2.8579   -9.9000    0.0000 C   0  0  0  0  0  0  0  0  0  0  0  0
    3.5724  -10.3125    0.0000 C   0  0  0  0  0  0  0  0  0  0  0  0
    3.5724  -11.1375    0.0000 C   0  0  0  0  0  0  0  0  0  0  0  0
    4.2868  -11.5500    0.0000 C   0  0  0  0  0  0  0  0  0  0  0  0
    2.8579  -11.5500    0.0000 C   0  0  0  0  0  0  0  0  0  0  0  0
    2.8579  -12.3750    0.0000 N   0  0  0  0  0  0  0  0  0  0  0  0
    3.5724  -12.7875    0.0000 N   0  0  0  0  0  0  0  0  0  0  0  0
    3.5724  -13.6125    0.0000 C   0  0  0  0  0  0  0  0  0  0  0  0
    4.2868  -14.0250    0.0000 C   0  0  0  0  0  0  0  0  0  0  0  0
    4.2868  -14.8500    0.0000 C   0  0  0  0  0  0  0  0  0  0  0  0
    3.5724  -15.2625    0.0000 C   0  0  0  0  0  0  0  0  0  0  0  0
    3.5724  -16.0875    0.0000 S   0  0  0  0  0  0  0  0  0  0  0  0
    3.5724  -16.9125    0.0000 O   0  0  0  0  0  0  0  0  0  0  0  0
    2.7474  -16.0875    0.0000 O   0  0  0  0  0  0  0  0  0  0  0  0
    4.3974  -16.0875    0.0000 O   0  0  0  0  0  0  0  0  0  0  0  0
    2.8579  -14.8500    0.0000 C   0  0  0  0  0  0  0  0  0  0  0  0
    2.8579  -14.0250    0.0000 C   0  0  0  0  0  0  0  0  0  0  0  0
    2.1434  -11.1375    0.0000 C   0  0  0  0  0  0  0  0  0  0  0  0
    2.1434  -10.3125    0.0000 C   0  0  0  0  0  0  0  0  0  0  0  0
    1.4289   -9.9000    0.0000 O   0  0  0  0  0  0  0  0  0  0  0  0
    1.4289   -9.0750    0.0000 C   0  0  0  0  0  0  0  0  0  0  0  0
    1.4289   -7.4250    0.0000 C   0  0  0  0  0  0  0  0  0  0  0  0
    1.4289   -6.6000    0.0000 C   0  0  0  0  0  0  0  0  0  0  0  0
  1  2  1  0  0  0  0
  2  3  1  0  0  0  0
  3  4  4  0  0  0  0
  4  5  4  0  0  0  0
  5  6  4  0  0  0  0
  7  6  1  4  0  0  0
  7  8  2  0  0  0  0
  8  9  1  0  0  0  0
  9 10  4  0  0  0  0
 10 11  4  0  0  0  0
 11 12  1  0  0  0  0
 11 13  4  0  0  0  0
 14 13  1  4  0  0  0
 14 15  2  0  0  0  0
 15 16  1  0  0  0  0
 16 17  4  0  0  0  0
 17 18  4  0  0  0  0
 18 19  4  0  0  0  0
 19 20  1  0  0  0  0
 20 21  2  0  0  0  0
 20 22  2  0  0  0  0
 20 23  1  0  0  0  0
 19 24  4  0  0  0  0
 24 25  4  0  0  0  0
 16 25  4  0  0  0  0
 13 26  4  0  0  0  0
 26 27  4  0  0  0  0
  9 27  4  0  0  0  0
 27 28  1  0  0  0  0
 28 29  1  0  0  0  0
  6 30  4  0  0  0  0
 30 31  4  0  0  0  0
  3 31  4  0  0  0  0
M  END
> <activity>
111.1218796

> <InChiKey>
DTRJDURRPWBDEY-UHFFFAOYSA-N

$$$$

  Mrv2220 08292413012D          

 23 25  0  0  0  0            999 V2000
    0.7145   -7.0125    0.0000 O   0  0  0  0  0  0  0  0  0  0  0  0
    0.7145   -6.1875    0.0000 S   0  0  0  0  0  0  0  0  0  0  0  0
    1.5395   -6.1875    0.0000 O   0  0  0  0  0  0  0  0  0  0  0  0
   -0.1105   -6.1875    0.0000 O   0  0  0  0  0  0  0  0  0  0  0  0
    0.7145   -5.3625    0.0000 C   0  0  0  0  0  0  0  0  0  0  0  0
    0.0000   -4.9500    0.0000 C   0  0  0  0  0  0  0  0  0  0  0  0
    0.0000   -4.1250    0.0000 C   0  0  0  0  0  0  0  0  0  0  0  0
    0.7145   -3.7125    0.0000 C   0  0  0  0  0  0  0  0  0  0  0  0
    0.7145   -2.8875    0.0000 N   0  0  0  0  0  0  0  0  0  0  0  0
    1.4289   -2.4750    0.0000 N   0  0  0  0  0  0  0  0  0  0  0  0
    1.4289   -1.6500    0.0000 C   0  0  0  0  0  0  0  0  0  0  0  0
    0.7145   -1.2375    0.0000 C   0  0  0  0  0  0  0  0  0  0  0  0
    0.0000   -1.6500    0.0000 O   0  0  0  0  0  0  0  0  0  0  0  0
    0.7145   -0.4125    0.0000 C   0  0  0  0  0  0  0  0  0  0  0  0
    1.4289    0.0000    0.0000 C   0  0  0  0  0  0  0  0  0  0  0  0
    2.1434   -0.4125    0.0000 C   0  0  0  0  0  0  0  0  0  0  0  0
    2.8579    0.0000    0.0000 C   0  0  0  0  0  0  0  0  0  0  0  0
    3.5724   -0.4125    0.0000 C   0  0  0  0  0  0  0  0  0  0  0  0
    3.5724   -1.2375    0.0000 C   0  0  0  0  0  0  0  0  0  0  0  0
    2.8579   -1.6500    0.0000 C   0  0  0  0  0  0  0  0  0  0  0  0
    2.1434   -1.2375    0.0000 C   0  0  0  0  0  0  0  0  0  0  0  0
    1.4289   -4.1250    0.0000 C   0  0  0  0  0  0  0  0  0  0  0  0
    1.4289   -4.9500    0.0000 C   0  0  0  0  0  0  0  0  0  0  0  0
  1  2  2  0  0  0  0
  2  3  2  0  0  0  0
  2  4  1  0  0  0  0
  2  5  1  0  0  0  0
  5  6  4  0  0  0  0
  6  7  4  0  0  0  0
  7  8  4  0  0  0  0
  9  8  1  4  0  0  0
  9 10  2  0  0  0  0
 10 11  1  0  0  0  0
 11 12  4  0  0  0  0
 12 13  1  0  0  0  0
 12 14  4  0  0  0  0
 14 15  4  0  0  0  0
 15 16  4  0  0  0  0
 16 17  4  0  0  0  0
 17 18  4  0  0  0  0
 18 19  4  0  0  0  0
 19 20  4  0  0  0  0
 20 21  4  0  0  0  0
 11 21  4  0  0  0  0
 16 21  4  0  0  0  0
  8 22  4  0  0  0  0
 22 23  4  0  0  0  0
  5 23  4  0  0  0  0
M  END
> <activity>
110.3122556

> <InChiKey>
RDUJRVXKAIVTDH-UHFFFAOYSA-N

$$$$

  Mrv2220 08292413012D          

 14 15  0  0  0  0            999 V2000
    2.7845    0.6979    0.0000 C   0  0  0  0  0  0  0  0  0  0  0  0
    2.0701    1.1104    0.0000 N   0  0  0  0  0  0  0  0  0  0  0  0
    1.3556    0.6979    0.0000 C   0  0  0  0  0  0  0  0  0  0  0  0
    1.3556   -0.1271    0.0000 O   0  0  0  0  0  0  0  0  0  0  0  0
    0.6411    1.1104    0.0000 C   0  0  0  0  0  0  0  0  0  0  0  0
    0.6411    1.9354    0.0000 C   0  0  0  0  0  0  0  0  0  0  0  0
   -0.1435    2.1904    0.0000 N   0  0  0  0  0  0  0  0  0  0  0  0
   -0.6284    1.5229    0.0000 C   0  0  0  0  0  0  0  0  0  0  0  0
   -0.1435    0.8555    0.0000 N   0  0  0  0  0  0  0  0  0  0  0  0
   -0.3984    0.0709    0.0000 C   0  0  0  0  0  0  0  0  0  0  0  0
    1.3556    2.3479    0.0000 N   0  0  0  0  0  0  0  0  0  0  0  0
    1.3556    3.1729    0.0000 C   0  0  0  0  0  0  0  0  0  0  0  0
    2.0701    1.9354    0.0000 C   0  0  0  0  0  0  0  0  0  0  0  0
    2.7845    2.3479    0.0000 O   0  0  0  0  0  0  0  0  0  0  0  0
  1  2  1  0  0  0  0
  2  3  4  0  0  0  0
  3  4  2  0  0  0  0
  3  5  4  0  0  0  0
  5  6  4  0  0  0  0
  6  7  4  0  0  0  0
  7  8  4  0  0  0  0
  8  9  4  0  0  0  0
  5  9  4  0  0  0  0
  9 10  1  0  0  0  0
  6 11  4  0  0  0  0
 11 12  1  0  0  0  0
 11 13  4  0  0  0  0
  2 13  4  0  0  0  0
 13 14  2  0  0  0  0
M  END
> <activity>
-3.242788835

> <InChiKey>
RYYVLZVUVIJVGH-UHFFFAOYSA-N

$$$$

  Mrv2220 08292413012D          

 26 28  0  0  0  0            999 V2000
   -2.1434   -0.4125    0.0000 C   0  0  0  0  0  0  0  0  0  0  0  0
   -1.4289    0.0000    0.0000 C   0  0  0  0  0  0  0  0  0  0  0  0
   -1.4289    0.8250    0.0000 O   0  0  0  0  0  0  0  0  0  0  0  0
   -0.7145   -0.4125    0.0000 C   0  0  0  0  0  0  0  0  0  0  0  0
   -0.7145   -1.2375    0.0000 C   0  0  0  0  0  0  0  0  0  0  0  0
    0.0000   -1.6500    0.0000 C   0  0  0  0  0  0  0  0  0  0  0  0
    0.7145   -1.2375    0.0000 C   0  0  0  0  0  0  0  0  0  0  0  0
    0.7145   -0.4125    0.0000 C   0  0  0  0  0  0  0  0  0  0  0  0
    0.0000   -0.0000    0.0000 C   0  0  0  0  0  0  0  0  0  0  0  0
    1.4289   -0.0000    0.0000 C   0  0  0  0  0  0  0  0  0  0  0  0
    1.4289    0.8250    0.0000 N   0  0  0  0  0  0  0  0  0  0  0  0
    0.7145    1.2375    0.0000 C   0  0  0  0  0  0  0  0  0  0  0  0
    0.0000    0.8250    0.0000 O   0  0  0  0  0  0  0  0  0  0  0  0
    0.7145    2.0625    0.0000 C   0  0  0  0  0  0  0  0  0  0  0  0
   -0.0000    2.4750    0.0000 C   0  0  0  0  0  0  0  0  0  0  0  0
   -0.0000    3.3000    0.0000 C   0  0  0  0  0  0  0  0  0  0  0  0
    0.7145    3.7125    0.0000 C   0  0  0  0  0  0  0  0  0  0  0  0
    0.7145    4.5375    0.0000 F   0  0  0  0  0  0  0  0  0  0  0  0
    1.4289    3.3000    0.0000 C   0  0  0  0  0  0  0  0  0  0  0  0
    1.4289    2.4750    0.0000 C   0  0  0  0  0  0  0  0  0  0  0  0
    2.1434   -0.4125    0.0000 C   0  0  0  0  0  0  0  0  0  0  0  0
    2.8579   -0.0000    0.0000 O   0  0  0  0  0  0  0  0  0  0  0  0
    2.1434   -1.2375    0.0000 C   0  0  0  0  0  0  0  0  0  0  0  0
    2.9559   -1.0942    0.0000 C   0  0  0  0  0  0  0  0  0  0  0  0
    2.4256   -2.0127    0.0000 C   0  0  0  0  0  0  0  0  0  0  0  0
    1.4289   -1.6500    0.0000 O   0  0  0  0  0  0  0  0  0  0  0  0
  1  2  1  0  0  0  0
  2  3  2  0  0  0  0
  2  4  1  0  0  0  0
  4  5  4  0  0  0  0
  5  6  4  0  0  0  0
  6  7  4  0  0  0  0
  7  8  4  0  0  0  0
  8  9  4  0  0  0  0
  4  9  4  0  0  0  0
  8 10  1  0  0  0  0
 10 11  1  0  0  0  0
 11 12  1  0  0  0  0
 12 13  2  0  0  0  0
 12 14  1  0  0  0  0
 14 15  4  0  0  0  0
 15 16  4  0  0  0  0
 16 17  4  0  0  0  0
 17 18  1  0  0  0  0
 17 19  4  0  0  0  0
 19 20  4  0  0  0  0
 14 20  4  0  0  0  0
 10 21  1  0  0  0  0
 21 22  1  0  0  0  0
 21 23  1  0  0  0  0
 23 24  1  0  0  0  0
 23 25  1  0  0  0  0
 23 26  1  0  0  0  0
  7 26  1  0  0  0  0
M  END
> <activity>
12.45714286

> <InChiKey>
RCLXAPJEFHPYEG-UHFFFAOYSA-N

$$$$

  Mrv2220 08292413012D          

 12 12  0  0  0  0            999 V2000
    0.0000    2.4750    0.0000 C   0  0  0  0  0  0  0  0  0  0  0  0
    0.7145    2.0625    0.0000 O   0  0  0  0  0  0  0  0  0  0  0  0
    0.7145    1.2375    0.0000 C   0  0  0  0  0  0  0  0  0  0  0  0
    1.4289    0.8250    0.0000 C   0  0  0  0  0  0  0  0  0  0  0  0
    1.4289   -0.0000    0.0000 C   0  0  0  0  0  0  0  0  0  0  0  0
    2.1434   -0.4125    0.0000 Cl  0  0  0  0  0  0  0  0  0  0  0  0
    0.7145   -0.4125    0.0000 C   0  0  0  0  0  0  0  0  0  0  0  0
    0.7145   -1.2375    0.0000 O   0  0  0  0  0  0  0  0  0  0  0  0
    1.4289   -1.6500    0.0000 C   0  0  0  0  0  0  0  0  0  0  0  0
    0.0000    0.0000    0.0000 C   0  0  0  0  0  0  0  0  0  0  0  0
    0.0000    0.8250    0.0000 C   0  0  0  0  0  0  0  0  0  0  0  0
   -0.7145    1.2375    0.0000 Cl  0  0  0  0  0  0  0  0  0  0  0  0
  1  2  1  0  0  0  0
  2  3  1  0  0  0  0
  3  4  4  0  0  0  0
  4  5  4  0  0  0  0
  5  6  1  0  0  0  0
  5  7  4  0  0  0  0
  7  8  1  0  0  0  0
  8  9  1  0  0  0  0
  7 10  4  0  0  0  0
 10 11  4  0  0  0  0
  3 11  4  0  0  0  0
 11 12  1  0  0  0  0
M  END
> <activity>
86.96613872

> <InChiKey>
PFIADAMVCJPXSF-UHFFFAOYSA-N

$$$$

  Mrv2220 08292413012D          

 11 10  0  0  0  0            999 V2000
    3.7125    2.1434    0.0000 C   0  0  0  0  0  0  0  0  0  0  0  0
    3.3000    1.4289    0.0000 C   0  0  0  0  0  0  0  0  0  0  0  0
    3.7125    0.7145    0.0000 C   0  0  0  0  0  0  0  0  0  0  0  0
    2.4750    1.4289    0.0000 C   0  0  0  0  0  0  0  0  0  0  0  0
    2.0625    0.7145    0.0000 C   0  0  0  0  0  0  0  0  0  0  0  0
    1.2375    0.7145    0.0000 C   0  0  0  0  0  0  0  0  0  0  0  0
    0.8250    0.0000    0.0000 C   0  0  0  0  0  0  0  0  0  0  0  0
    1.2375   -0.7145    0.0000 C   0  0  0  0  0  0  0  0  0  0  0  0
    0.0000    0.0000    0.0000 C   0  0  0  0  0  0  0  0  0  0  0  0
   -0.4125   -0.7145    0.0000 C   0  0  0  0  0  0  0  0  0  0  0  0
   -0.8250   -1.4289    0.0000 N   0  0  0  0  0  0  0  0  0  0  0  0
  1  2  1  0  0  0  0
  2  3  1  0  0  0  0
  2  4  2  0  0  0  0
  4  5  1  0  0  0  0
  5  6  1  0  0  0  0
  6  7  1  0  0  0  0
  7  8  1  0  0  0  0
  7  9  2  0  0  0  0
  9 10  1  4  0  0  0
 10 11  3  0  0  0  0
M  END
> <activity>
50.73414839

> <InChiKey>
HLCSDJLATUNSSI-UHFFFAOYSA-N

$$$$

  Mrv2220 08292413012D          

 20 22  0  0  0  0            999 V2000
    0.7145   -2.8875    0.0000 Cl  0  0  0  0  0  0  0  0  0  0  0  0
    0.7145   -3.7125    0.0000 C   0  0  0  0  0  0  0  0  0  0  0  0
    1.4289   -4.1250    0.0000 C   0  0  0  0  0  0  0  0  0  0  0  0
    1.4289   -4.9500    0.0000 C   0  0  0  0  0  0  0  0  0  0  0  0
    0.7145   -5.3625    0.0000 C   0  0  0  0  0  0  0  0  0  0  0  0
    0.0000   -4.9500    0.0000 C   0  0  0  0  0  0  0  0  0  0  0  0
    0.0000   -4.1250    0.0000 C   0  0  0  0  0  0  0  0  0  0  0  0
   -0.7145   -3.7125    0.0000 C   0  0  0  0  0  0  0  0  0  0  0  0
   -1.4289   -4.1250    0.0000 N   0  0  0  0  0  0  0  0  0  0  0  0
   -2.1434   -3.7125    0.0000 N   0  0  0  0  0  0  0  0  0  0  0  0
   -2.1434   -2.8875    0.0000 C   0  0  0  0  0  0  0  0  0  0  0  0
   -2.8579   -2.4750    0.0000 C   0  0  0  0  0  0  0  0  0  0  0  0
   -3.5724   -2.8875    0.0000 C   0  0  0  0  0  0  0  0  0  0  0  0
   -4.2868   -2.4750    0.0000 C   0  0  0  0  0  0  0  0  0  0  0  0
   -4.2868   -1.6500    0.0000 C   0  0  0  0  0  0  0  0  0  0  0  0
   -3.5724   -1.2375    0.0000 C   0  0  0  0  0  0  0  0  0  0  0  0
   -2.8579   -1.6500    0.0000 C   0  0  0  0  0  0  0  0  0  0  0  0
   -2.1434   -1.2375    0.0000 Cl  0  0  0  0  0  0  0  0  0  0  0  0
   -1.4289   -2.4750    0.0000 N   0  0  0  0  0  0  0  0  0  0  0  0
   -0.7145   -2.8875    0.0000 N   0  0  0  0  0  0  0  0  0  0  0  0
  1  2  1  0  0  0  0
  2  3  4  0  0  0  0
  3  4  4  0  0  0  0
  4  5  4  0  0  0  0
  5  6  4  0  0  0  0
  6  7  4  0  0  0  0
  2  7  4  0  0  0  0
  7  8  1  0  0  0  0
  8  9  4  0  0  0  0
  9 10  4  0  0  0  0
 10 11  4  0  0  0  0
 11 12  1  0  0  0  0
 12 13  4  0  0  0  0
 13 14  4  0  0  0  0
 14 15  4  0  0  0  0
 15 16  4  0  0  0  0
 16 17  4  0  0  0  0
 12 17  4  0  0  0  0
 17 18  1  0  0  0  0
 11 19  4  0  0  0  0
 19 20  4  0  0  0  0
  8 20  4  0  0  0  0
M  END
> <activity>
60.08369805

> <InChiKey>
UXADOQPNKNTIHB-UHFFFAOYSA-N

$$$$

  Mrv2220 08292413012D          

 11 11  0  0  0  0            999 V2000
    0.0000    2.4750    0.0000 O   0  0  0  0  0  0  0  0  0  0  0  0
    0.7145    2.0625    0.0000 C   0  0  0  0  0  0  0  0  0  0  0  0
    1.4289    2.4750    0.0000 O   0  0  0  0  0  0  0  0  0  0  0  0
    0.7145    1.2375    0.0000 C   0  0  0  0  0  0  0  0  0  0  0  0
    1.4289    0.8250    0.0000 N   0  0  0  0  0  0  0  0  0  0  0  0
    1.4289   -0.0000    0.0000 C   0  0  0  0  0  0  0  0  0  0  0  0
    2.1434   -0.4125    0.0000 Cl  0  0  0  0  0  0  0  0  0  0  0  0
    0.7145   -0.4125    0.0000 C   0  0  0  0  0  0  0  0  0  0  0  0
    0.0000    0.0000    0.0000 C   0  0  0  0  0  0  0  0  0  0  0  0
    0.0000    0.8250    0.0000 C   0  0  0  0  0  0  0  0  0  0  0  0
   -0.7145    1.2375    0.0000 Cl  0  0  0  0  0  0  0  0  0  0  0  0
  1  2  2  0  0  0  0
  2  3  1  0  0  0  0
  2  4  1  0  0  0  0
  4  5  4  0  0  0  0
  5  6  4  0  0  0  0
  6  7  1  0  0  0  0
  6  8  4  0  0  0  0
  8  9  4  0  0  0  0
  9 10  4  0  0  0  0
  4 10  4  0  0  0  0
 10 11  1  0  0  0  0
M  END
> <activity>
20.81649372

> <InChiKey>
HUBANNPOLNYSAD-UHFFFAOYSA-N

$$$$

  Mrv2220 08292413012D          

 11 12  0  0  0  0            999 V2000
    0.0000   -1.6500    0.0000 O   0  0  0  0  0  0  0  0  0  0  0  0
    0.7145   -1.2375    0.0000 C   0  0  0  0  0  0  0  0  0  0  0  0
    0.7145   -0.4125    0.0000 C   0  0  0  0  0  0  0  0  0  0  0  0
    1.4289    0.0000    0.0000 C   0  0  0  0  0  0  0  0  0  0  0  0
    2.1434   -0.4125    0.0000 C   0  0  0  0  0  0  0  0  0  0  0  0
    2.8579    0.0000    0.0000 C   0  0  0  0  0  0  0  0  0  0  0  0
    3.5724   -0.4125    0.0000 C   0  0  0  0  0  0  0  0  0  0  0  0
    3.5724   -1.2375    0.0000 C   0  0  0  0  0  0  0  0  0  0  0  0
    2.8579   -1.6500    0.0000 C   0  0  0  0  0  0  0  0  0  0  0  0
    2.1434   -1.2375    0.0000 C   0  0  0  0  0  0  0  0  0  0  0  0
    1.4289   -1.6500    0.0000 O   0  0  0  0  0  0  0  0  0  0  0  0
  1  2  2  0  0  0  0
  2  3  4  0  0  0  0
  3  4  4  0  0  0  0
  4  5  4  0  0  0  0
  5  6  4  0  0  0  0
  6  7  4  0  0  0  0
  7  8  4  0  0  0  0
  8  9  4  0  0  0  0
  9 10  4  0  0  0  0
  5 10  4  0  0  0  0
 10 11  4  0  0  0  0
  2 11  4  0  0  0  0
M  END
> <activity>
19.72643528

> <InChiKey>
ZYGHJZDHTFUPRJ-UHFFFAOYSA-N

$$$$

  Mrv2220 08292413012D          

 23 25  0  0  0  0            999 V2000
    1.4358   -2.7631    0.0000 N   0  0  0  0  0  0  0  0  0  0  0  0
    0.8838   -2.1500    0.0000 C   0  0  0  0  0  0  0  0  0  0  0  0
    0.0768   -2.3215    0.0000 O   0  0  0  0  0  0  0  0  0  0  0  0
    1.1387   -1.3654    0.0000 N   0  0  0  0  0  0  0  0  0  0  0  0
    0.6538   -0.6979    0.0000 C   0  0  0  0  0  0  0  0  0  0  0  0
   -0.1712   -0.6979    0.0000 O   0  0  0  0  0  0  0  0  0  0  0  0
    1.1387   -0.0305    0.0000 C   0  0  0  0  0  0  0  0  0  0  0  0
    0.8838    0.7541    0.0000 C   0  0  0  0  0  0  0  0  0  0  0  0
    1.4358    1.3672    0.0000 O   0  0  0  0  0  0  0  0  0  0  0  0
    0.0768    0.9256    0.0000 C   0  0  0  0  0  0  0  0  0  0  0  0
   -0.5363    0.3736    0.0000 C   0  0  0  0  0  0  0  0  0  0  0  0
   -1.2508    0.7861    0.0000 C   0  0  0  0  0  0  0  0  0  0  0  0
   -2.0044    0.4506    0.0000 Cl  0  0  0  0  0  0  0  0  0  0  0  0
   -1.0792    1.5931    0.0000 C   0  0  0  0  0  0  0  0  0  0  0  0
   -0.2587    1.6793    0.0000 S   0  0  0  0  0  0  0  0  0  0  0  0
    1.9233   -0.2854    0.0000 C   0  0  0  0  0  0  0  0  0  0  0  0
    2.6378    0.1271    0.0000 C   0  0  0  0  0  0  0  0  0  0  0  0
    3.3523   -0.2854    0.0000 C   0  0  0  0  0  0  0  0  0  0  0  0
    4.0668    0.1271    0.0000 F   0  0  0  0  0  0  0  0  0  0  0  0
    3.3523   -1.1104    0.0000 C   0  0  0  0  0  0  0  0  0  0  0  0
    4.0668   -1.5229    0.0000 Cl  0  0  0  0  0  0  0  0  0  0  0  0
    2.6378   -1.5229    0.0000 C   0  0  0  0  0  0  0  0  0  0  0  0
    1.9233   -1.1104    0.0000 C   0  0  0  0  0  0  0  0  0  0  0  0
  1  2  1  0  0  0  0
  2  3  2  0  0  0  0
  2  4  1  0  0  0  0
  4  5  1  0  0  0  0
  5  6  2  0  0  0  0
  5  7  1  0  0  0  0
  7  8  1  0  0  0  0
  8  9  2  0  0  0  0
  8 10  1  0  0  0  0
 10 11  4  0  0  0  0
 11 12  4  0  0  0  0
 12 13  1  0  0  0  0
 12 14  4  0  0  0  0
 14 15  4  0  0  0  0
 10 15  4  0  0  0  0
  7 16  1  0  0  0  0
 16 17  4  0  0  0  0
 17 18  4  0  0  0  0
 18 19  1  0  0  0  0
 18 20  4  0  0  0  0
 20 21  1  0  0  0  0
 20 22  4  0  0  0  0
 22 23  4  0  0  0  0
 16 23  4  0  0  0  0
  4 23  1  0  0  0  0
M  END
> <activity>
104.9348849

> <InChiKey>
TVBUSVDXSSKDSK-UHFFFAOYSA-N

$$$$

  Mrv2220 08292413012D          

 27 29  0  0  0  0            999 V2000
    3.5724    1.2375    0.0000 C   0  0  0  0  0  0  0  0  0  0  0  0
    4.2868    0.8250    0.0000 O   0  0  0  0  0  0  0  0  0  0  0  0
    4.2868    0.0000    0.0000 C   0  0  0  0  0  0  0  0  0  0  0  0
    5.0013   -0.4125    0.0000 C   0  0  0  0  0  0  0  0  0  0  0  0
    5.0013   -1.2375    0.0000 C   0  0  0  0  0  0  0  0  0  0  0  0
    4.2868   -1.6500    0.0000 C   0  0  0  0  0  0  0  0  0  0  0  0
    4.2868   -2.4750    0.0000 O   0  0  0  0  0  0  0  0  0  0  0  0
    5.0013   -2.8875    0.0000 C   0  0  0  0  0  0  0  0  0  0  0  0
    5.7158   -3.3000    0.0000 F   0  0  0  0  0  0  0  0  0  0  0  0
    5.4138   -2.1730    0.0000 F   0  0  0  0  0  0  0  0  0  0  0  0
    4.5888   -3.6020    0.0000 F   0  0  0  0  0  0  0  0  0  0  0  0
    3.5724   -1.2375    0.0000 C   0  0  0  0  0  0  0  0  0  0  0  0
    3.5724   -0.4125    0.0000 C   0  0  0  0  0  0  0  0  0  0  0  0
    2.8579    0.0000    0.0000 C   0  0  0  0  0  0  0  0  0  0  0  0
    2.8579    0.8250    0.0000 N   0  0  0  0  0  0  0  0  0  0  0  0
    2.1434    1.2375    0.0000 C   0  0  0  0  0  0  0  0  0  0  0  0
    1.4289    0.8250    0.0000 C   0  0  0  0  0  0  0  0  0  0  0  0
    0.7145    1.2375    0.0000 C   0  0  0  0  0  0  0  0  0  0  0  0
    0.7145    2.0625    0.0000 C   0  0  0  0  0  0  0  0  0  0  0  0
    1.4289    2.4750    0.0000 N   0  0  0  0  0  0  0  0  0  0  0  0
    2.1434    2.0625    0.0000 C   0  0  0  0  0  0  0  0  0  0  0  0
    2.8579    2.4750    0.0000 C   0  0  0  0  0  0  0  0  0  0  0  0
    2.8579    3.3000    0.0000 C   0  0  0  0  0  0  0  0  0  0  0  0
    3.5724    3.7125    0.0000 C   0  0  0  0  0  0  0  0  0  0  0  0
    4.2868    3.3000    0.0000 C   0  0  0  0  0  0  0  0  0  0  0  0
    4.2868    2.4750    0.0000 C   0  0  0  0  0  0  0  0  0  0  0  0
    3.5724    2.0625    0.0000 C   0  0  0  0  0  0  0  0  0  0  0  0
  1  2  1  0  0  0  0
  2  3  1  0  0  0  0
  3  4  4  0  0  0  0
  4  5  4  0  0  0  0
  5  6  4  0  0  0  0
  6  7  1  0  0  0  0
  7  8  1  0  0  0  0
  8  9  1  0  0  0  0
  8 10  1  0  0  0  0
  8 11  1  0  0  0  0
  6 12  4  0  0  0  0
 12 13  4  0  0  0  0
  3 13  4  0  0  0  0
 13 14  1  0  0  0  0
 14 15  1  0  0  0  0
 15 16  1  0  0  0  0
 16 17  1  0  0  0  0
 17 18  1  0  0  0  0
 18 19  1  0  0  0  0
 19 20  1  0  0  0  0
 20 21  1  0  0  0  0
 16 21  1  0  0  0  0
 21 22  1  0  0  0  0
 22 23  4  0  0  0  0
 23 24  4  0  0  0  0
 24 25  4  0  0  0  0
 25 26  4  0  0  0  0
 26 27  4  0  0  0  0
 22 27  4  0  0  0  0
M  END
> <activity>
5.164777908

> <InChiKey>
ZIWFCOIGUNPHPM-UHFFFAOYSA-N

$$$$

  Mrv2220 08292413012D          

 28 31  0  0  0  0            999 V2000
   -1.8112    4.2301    0.0000 C   0  0  0  0  0  0  0  0  0  0  0  0
   -0.9907    4.3163    0.0000 C   0  0  0  0  0  0  0  0  0  0  0  0
   -0.9044    3.4958    0.0000 C   0  0  0  0  0  0  0  0  0  0  0  0
   -1.0769    5.1368    0.0000 O   0  0  0  0  0  0  0  0  0  0  0  0
   -0.1702    4.4025    0.0000 C   0  0  0  0  0  0  0  0  0  0  0  0
    0.2423    5.1170    0.0000 C   0  0  0  0  0  0  0  0  0  0  0  0
    1.0493    4.9455    0.0000 O   0  0  0  0  0  0  0  0  0  0  0  0
    1.1355    4.1250    0.0000 C   0  0  0  0  0  0  0  0  0  0  0  0
    1.8500    3.7125    0.0000 S   0  0  0  0  0  0  0  0  0  0  0  0
    1.4375    2.9980    0.0000 O   0  0  0  0  0  0  0  0  0  0  0  0
    2.2625    4.4270    0.0000 O   0  0  0  0  0  0  0  0  0  0  0  0
    2.5645    3.3000    0.0000 N   0  0  0  0  0  0  0  0  0  0  0  0
    2.5645    2.4750    0.0000 C   0  0  0  0  0  0  0  0  0  0  0  0
    1.8500    2.0625    0.0000 O   0  0  0  0  0  0  0  0  0  0  0  0
    3.2789    2.0625    0.0000 N   0  0  0  0  0  0  0  0  0  0  0  0
    3.2789    1.2375    0.0000 C   0  0  0  0  0  0  0  0  0  0  0  0
    3.9934    0.8250    0.0000 C   0  0  0  0  0  0  0  0  0  0  0  0
    3.9934    0.0000    0.0000 C   0  0  0  0  0  0  0  0  0  0  0  0
    3.2789   -0.4125    0.0000 C   0  0  0  0  0  0  0  0  0  0  0  0
    2.5645    0.0000    0.0000 C   0  0  0  0  0  0  0  0  0  0  0  0
    2.5645    0.8250    0.0000 C   0  0  0  0  0  0  0  0  0  0  0  0
    1.7798    1.0799    0.0000 C   0  0  0  0  0  0  0  0  0  0  0  0
    1.2949    0.4125    0.0000 C   0  0  0  0  0  0  0  0  0  0  0  0
    1.7798   -0.2549    0.0000 C   0  0  0  0  0  0  0  0  0  0  0  0
    4.7780   -0.2549    0.0000 C   0  0  0  0  0  0  0  0  0  0  0  0
    5.2629    0.4125    0.0000 C   0  0  0  0  0  0  0  0  0  0  0  0
    4.7780    1.0799    0.0000 C   0  0  0  0  0  0  0  0  0  0  0  0
    0.3818    3.7894    0.0000 C   0  0  0  0  0  0  0  0  0  0  0  0
  1  2  1  0  0  0  0
  2  3  1  0  0  0  0
  2  4  1  0  0  0  0
  2  5  1  0  0  0  0
  5  6  4  0  0  0  0
  6  7  4  0  0  0  0
  7  8  4  0  0  0  0
  8  9  1  0  0  0  0
  9 10  2  0  0  0  0
  9 11  2  0  0  0  0
  9 12  1  0  0  0  0
 12 13  1  0  0  0  0
 13 14  2  0  0  0  0
 13 15  1  0  0  0  0
 15 16  1  0  0  0  0
 16 17  4  0  0  0  0
 17 18  4  0  0  0  0
 18 19  4  0  0  0  0
 19 20  4  0  0  0  0
 20 21  4  0  0  0  0
 16 21  4  0  0  0  0
 21 22  1  0  0  0  0
 22 23  1  0  0  0  0
 23 24  1  0  0  0  0
 20 24  1  0  0  0  0
 18 25  1  0  0  0  0
 25 26  1  0  0  0  0
 26 27  1  0  0  0  0
 17 27  1  0  0  0  0
  8 28  4  0  0  0  0
  5 28  4  0  0  0  0
M  END
> <activity>
35.03390378

> <InChiKey>
HUUSXLKCTQDPGL-UHFFFAOYSA-N

$$$$

  Mrv2220 08292413012D          

 37 41  0  0  0  0            999 V2000
   -1.1495   -5.0203    0.0000 C   0  0  0  0  0  0  0  0  0  0  0  0
   -0.4820   -4.5353    0.0000 N   0  0  0  0  0  0  0  0  0  0  0  0
   -0.5683   -3.7149    0.0000 C   0  0  0  0  0  0  0  0  0  0  0  0
   -1.3220   -3.3793    0.0000 O   0  0  0  0  0  0  0  0  0  0  0  0
    0.0992   -3.2299    0.0000 C   0  0  0  0  0  0  0  0  0  0  0  0
    0.0992   -2.4049    0.0000 O   0  0  0  0  0  0  0  0  0  0  0  0
    0.8838   -2.1500    0.0000 C   0  0  0  0  0  0  0  0  0  0  0  0
    1.1387   -1.3654    0.0000 N   0  0  0  0  0  0  0  0  0  0  0  0
    0.6538   -0.6979    0.0000 C   0  0  0  0  0  0  0  0  0  0  0  0
    1.1387   -0.0305    0.0000 N   0  0  0  0  0  0  0  0  0  0  0  0
    1.9233   -0.2854    0.0000 C   0  0  0  0  0  0  0  0  0  0  0  0
    2.6378    0.1271    0.0000 C   0  0  0  0  0  0  0  0  0  0  0  0
    2.6378    0.9521    0.0000 N   0  0  0  0  0  0  0  0  0  0  0  0
    3.3523    1.3646    0.0000 C   0  0  0  0  0  0  0  0  0  0  0  0
    3.3523    2.1896    0.0000 C   0  0  0  0  0  0  0  0  0  0  0  0
    2.6378    2.6021    0.0000 C   0  0  0  0  0  0  0  0  0  0  0  0
    2.6378    3.4271    0.0000 C   0  0  0  0  0  0  0  0  0  0  0  0
    1.9233    3.8396    0.0000 Cl  0  0  0  0  0  0  0  0  0  0  0  0
    3.3523    3.8396    0.0000 C   0  0  0  0  0  0  0  0  0  0  0  0
    4.0668    3.4271    0.0000 C   0  0  0  0  0  0  0  0  0  0  0  0
    4.0668    2.6021    0.0000 C   0  0  0  0  0  0  0  0  0  0  0  0
    4.7812    2.1896    0.0000 O   0  0  0  0  0  0  0  0  0  0  0  0
    5.4957    2.6021    0.0000 C   0  0  0  0  0  0  0  0  0  0  0  0
    6.2102    2.1896    0.0000 C   0  0  0  0  0  0  0  0  0  0  0  0
    6.9638    2.5251    0.0000 C   0  0  0  0  0  0  0  0  0  0  0  0
    7.5159    1.9120    0.0000 C   0  0  0  0  0  0  0  0  0  0  0  0
    8.3364    1.9983    0.0000 C   0  0  0  0  0  0  0  0  0  0  0  0
    7.1034    1.1975    0.0000 N   0  0  0  0  0  0  0  0  0  0  0  0
    6.2964    1.3691    0.0000 O   0  0  0  0  0  0  0  0  0  0  0  0
    3.3523   -0.2854    0.0000 N   0  0  0  0  0  0  0  0  0  0  0  0
    3.3523   -1.1104    0.0000 C   0  0  0  0  0  0  0  0  0  0  0  0
    2.6378   -1.5229    0.0000 N   0  0  0  0  0  0  0  0  0  0  0  0
    1.9233   -1.1104    0.0000 C   0  0  0  0  0  0  0  0  0  0  0  0
    1.3687   -2.8174    0.0000 C   0  0  0  0  0  0  0  0  0  0  0  0
    2.1937   -2.8174    0.0000 O   0  0  0  0  0  0  0  0  0  0  0  0
    0.8838   -3.4849    0.0000 C   0  0  0  0  0  0  0  0  0  0  0  0
    1.1387   -4.2695    0.0000 N   0  0  0  0  0  0  0  0  0  0  0  0
  1  2  1  0  0  0  0
  2  3  1  0  0  0  0
  3  4  2  0  0  0  0
  3  5  1  0  0  0  0
  5  6  1  0  0  0  0
  6  7  1  0  0  0  0
  7  8  1  0  0  0  0
  8  9  4  0  0  0  0
  9 10  4  0  0  0  0
 10 11  4  0  0  0  0
 11 12  4  0  0  0  0
 12 13  1  0  0  0  0
 13 14  1  0  0  0  0
 14 15  1  0  0  0  0
 15 16  4  0  0  0  0
 16 17  4  0  0  0  0
 17 18  1  0  0  0  0
 17 19  4  0  0  0  0
 19 20  4  0  0  0  0
 20 21  4  0  0  0  0
 15 21  4  0  0  0  0
 21 22  1  0  0  0  0
 22 23  1  0  0  0  0
 23 24  1  0  0  0  0
 24 25  4  0  0  0  0
 25 26  4  0  0  0  0
 26 27  1  0  0  0  0
 26 28  4  0  0  0  0
 28 29  4  0  0  0  0
 24 29  4  0  0  0  0
 12 30  4  0  0  0  0
 30 31  4  0  0  0  0
 31 32  4  0  0  0  0
 32 33  4  0  0  0  0
 11 33  4  0  0  0  0
  8 33  4  0  0  0  0
  7 34  1  0  0  0  0
 34 35  1  0  0  0  0
 34 36  1  0  0  0  0
  5 36  1  0  0  0  0
 36 37  1  0  0  0  0
M  END
> <activity>
5.832623947

> <InChiKey>
PKUZHLZHLVHAIO-UHFFFAOYSA-N

$$$$

  Mrv2220 08292413012D          

 11 11  0  0  0  0            999 V2000
   -0.1105    2.0625    0.0000 C   0  0  0  0  0  0  0  0  0  0  0  0
    0.7145    2.0625    0.0000 C   0  0  0  0  0  0  0  0  0  0  0  0
    1.5395    2.0625    0.0000 C   0  0  0  0  0  0  0  0  0  0  0  0
    0.7145    2.8875    0.0000 O   0  0  0  0  0  0  0  0  0  0  0  0
    0.0000    3.3000    0.0000 O   0  0  0  0  0  0  0  0  0  0  0  0
    0.7145    1.2375    0.0000 C   0  0  0  0  0  0  0  0  0  0  0  0
    1.4289    0.8250    0.0000 C   0  0  0  0  0  0  0  0  0  0  0  0
    1.4289   -0.0000    0.0000 C   0  0  0  0  0  0  0  0  0  0  0  0
    0.7145   -0.4125    0.0000 C   0  0  0  0  0  0  0  0  0  0  0  0
    0.0000    0.0000    0.0000 C   0  0  0  0  0  0  0  0  0  0  0  0
    0.0000    0.8250    0.0000 C   0  0  0  0  0  0  0  0  0  0  0  0
  1  2  1  0  0  0  0
  2  3  1  0  0  0  0
  2  4  1  0  0  0  0
  4  5  1  0  0  0  0
  2  6  1  0  0  0  0
  6  7  4  0  0  0  0
  7  8  4  0  0  0  0
  8  9  4  0  0  0  0
  9 10  4  0  0  0  0
 10 11  4  0  0  0  0
  6 11  4  0  0  0  0
M  END
> <activity>
44.22230313

> <InChiKey>
YQHLDYVWEZKEOX-UHFFFAOYSA-N

$$$$

  Mrv2220 08292413012D          

  3  2  0  0  0  0            999 V2000
    1.6500   -0.0000    0.0000 N   0  0  0  0  0  0  0  0  0  0  0  0
    2.4750   -0.0000    0.0000 C   0  0  0  0  0  0  0  0  0  0  0  0
    3.3000    0.0000    0.0000 N   0  0  0  0  0  0  0  0  0  0  0  0
  1  2  3  0  0  0  0
  2  3  1  0  0  0  0
M  END
> <activity>
3.603488484

> <InChiKey>
XZMCDFZZKTWFGF-UHFFFAOYSA-N

$$$$

  Mrv2220 08292413012D          

  6  5  0  0  0  0            999 V2000
    0.4125    2.1434    0.0000 N   0  0  0  0  0  0  0  0  0  0  0  0
    0.8250    1.4289    0.0000 C   0  0  0  0  0  0  0  0  0  0  0  0
    1.2375    0.7145    0.0000 N   0  0  0  0  0  0  0  0  0  0  0  0
    0.8250    0.0000    0.0000 C   0  0  0  0  0  0  0  0  0  0  0  0
    1.2375   -0.7145    0.0000 N   0  0  0  0  0  0  0  0  0  0  0  0
    0.0000    0.0000    0.0000 N   0  0  0  0  0  0  0  0  0  0  0  0
  1  2  3  0  0  0  0
  2  3  1  0  0  0  0
  3  4  1  0  0  0  0
  4  5  2  0  0  0  0
  4  6  1  0  0  0  0
M  END
> <activity>
10.84854327

> <InChiKey>
QGBSISYHAICWAH-UHFFFAOYSA-N

$$$$

  Mrv2220 08292413012D          

  9  9  0  0  0  0            999 V2000
    0.7145    2.0625    0.0000 O   0  0  0  0  0  0  0  0  0  0  0  0
    0.7145    1.2375    0.0000 C   0  0  0  0  0  0  0  0  0  0  0  0
    1.4289    0.8250    0.0000 N   0  0  0  0  0  0  0  0  0  0  0  0
    1.4289   -0.0000    0.0000 C   0  0  0  0  0  0  0  0  0  0  0  0
    2.1434   -0.4125    0.0000 O   0  0  0  0  0  0  0  0  0  0  0  0
    0.7145   -0.4125    0.0000 N   0  0  0  0  0  0  0  0  0  0  0  0
    0.0000    0.0000    0.0000 C   0  0  0  0  0  0  0  0  0  0  0  0
   -0.7145   -0.4125    0.0000 O   0  0  0  0  0  0  0  0  0  0  0  0
    0.0000    0.8250    0.0000 N   0  0  0  0  0  0  0  0  0  0  0  0
  1  2  1  0  0  0  0
  2  3  4  0  0  0  0
  3  4  4  0  0  0  0
  4  5  1  0  0  0  0
  4  6  4  0  0  0  0
  6  7  4  0  0  0  0
  7  8  1  0  0  0  0
  7  9  4  0  0  0  0
  2  9  4  0  0  0  0
M  END
> <activity>
8.176918199

> <InChiKey>
ZFSLODLOARCGLH-UHFFFAOYSA-N

$$$$

  Mrv2220 08292413012D          

  7  7  0  0  0  0            999 V2000
    0.7145    2.0625    0.0000 O   0  0  0  0  0  0  0  0  0  0  0  0
    0.7145    1.2375    0.0000 C   0  0  0  0  0  0  0  0  0  0  0  0
    1.4289    0.8250    0.0000 C   0  0  0  0  0  0  0  0  0  0  0  0
    1.4289   -0.0000    0.0000 C   0  0  0  0  0  0  0  0  0  0  0  0
    0.7145   -0.4125    0.0000 C   0  0  0  0  0  0  0  0  0  0  0  0
    0.0000    0.0000    0.0000 C   0  0  0  0  0  0  0  0  0  0  0  0
    0.0000    0.8250    0.0000 C   0  0  0  0  0  0  0  0  0  0  0  0
  1  2  1  0  0  0  0
  2  3  1  0  0  0  0
  3  4  1  0  0  0  0
  4  5  1  0  0  0  0
  5  6  1  0  0  0  0
  6  7  1  0  0  0  0
  2  7  1  0  0  0  0
M  END
> <activity>
5.818678081

> <InChiKey>
HPXRVTGHNJAIIH-UHFFFAOYSA-N

$$$$

  Mrv2220 08292413012D          

  6  6  0  0  0  0            999 V2000
    0.5678    1.9393    0.0000 O   0  0  0  0  0  0  0  0  0  0  0  0
    0.5678    1.1143    0.0000 C   0  0  0  0  0  0  0  0  0  0  0  0
    1.2352    0.6294    0.0000 C   0  0  0  0  0  0  0  0  0  0  0  0
    0.9803   -0.1553    0.0000 C   0  0  0  0  0  0  0  0  0  0  0  0
    0.1553   -0.1553    0.0000 C   0  0  0  0  0  0  0  0  0  0  0  0
   -0.0997    0.6294    0.0000 C   0  0  0  0  0  0  0  0  0  0  0  0
  1  2  1  0  0  0  0
  2  3  1  0  0  0  0
  3  4  1  0  0  0  0
  4  5  1  0  0  0  0
  5  6  1  0  0  0  0
  2  6  1  0  0  0  0
M  END
> <activity>
9.231420707

> <InChiKey>
XCIXKGXIYUWCLL-UHFFFAOYSA-N

$$$$

  Mrv2220 08292413012D          

 20 22  0  0  0  0            999 V2000
   -0.0467    1.6033    0.0000 C   0  0  0  0  0  0  0  0  0  0  0  0
   -0.7612    1.1908    0.0000 C   0  0  0  0  0  0  0  0  0  0  0  0
   -0.7612    0.3658    0.0000 C   0  0  0  0  0  0  0  0  0  0  0  0
   -0.3487   -0.3487    0.0000 C   0  0  0  0  0  0  0  0  0  0  0  0
   -1.1737   -0.3487    0.0000 C   0  0  0  0  0  0  0  0  0  0  0  0
   -1.4757    1.6033    0.0000 C   0  0  0  0  0  0  0  0  0  0  0  0
   -2.1901    2.0158    0.0000 O   0  0  0  0  0  0  0  0  0  0  0  0
   -1.0632    2.3178    0.0000 C   0  0  0  0  0  0  0  0  0  0  0  0
   -1.4757    3.0322    0.0000 N   0  0  0  0  0  0  0  0  0  0  0  0
   -2.2961    3.1185    0.0000 C   0  0  0  0  0  0  0  0  0  0  0  0
   -2.4677    3.9254    0.0000 N   0  0  0  0  0  0  0  0  0  0  0  0
   -1.7532    4.3379    0.0000 C   0  0  0  0  0  0  0  0  0  0  0  0
   -1.1401    3.7859    0.0000 N   0  0  0  0  0  0  0  0  0  0  0  0
   -1.8882    0.8888    0.0000 C   0  0  0  0  0  0  0  0  0  0  0  0
   -1.4757    0.1743    0.0000 C   0  0  0  0  0  0  0  0  0  0  0  0
   -1.8882   -0.5401    0.0000 C   0  0  0  0  0  0  0  0  0  0  0  0
   -2.7132   -0.5401    0.0000 C   0  0  0  0  0  0  0  0  0  0  0  0
   -3.1257   -1.2546    0.0000 Cl  0  0  0  0  0  0  0  0  0  0  0  0
   -3.1257    0.1743    0.0000 C   0  0  0  0  0  0  0  0  0  0  0  0
   -2.7132    0.8888    0.0000 C   0  0  0  0  0  0  0  0  0  0  0  0
  1  2  1  0  0  0  0
  2  3  1  0  0  0  0
  3  4  1  0  0  0  0
  4  5  1  0  0  0  0
  3  5  1  0  0  0  0
  2  6  1  0  0  0  0
  6  7  1  0  0  0  0
  6  8  1  0  0  0  0
  8  9  1  0  0  0  0
  9 10  4  0  0  0  0
 10 11  4  0  0  0  0
 11 12  4  0  0  0  0
 12 13  4  0  0  0  0
  9 13  4  0  0  0  0
  6 14  1  0  0  0  0
 14 15  4  0  0  0  0
 15 16  4  0  0  0  0
 16 17  4  0  0  0  0
 17 18  1  0  0  0  0
 17 19  4  0  0  0  0
 19 20  4  0  0  0  0
 14 20  4  0  0  0  0
M  END
> <activity>
44.1124534

> <InChiKey>
UFNOUKDBUJZYDE-UHFFFAOYSA-N

$$$$

  Mrv2220 08292413012D          

 29 33  0  0  0  0            999 V2000
    3.1697   -4.7587    0.0000 C   0  0  0  0  0  0  0  0  0  0  0  0
    2.9152   -3.9739    0.0000 C   0  0  0  0  0  0  0  0  0  0  0  0
    2.1084   -3.8019    0.0000 O   0  0  0  0  0  0  0  0  0  0  0  0
    3.4676   -3.3612    0.0000 O   0  0  0  0  0  0  0  0  0  0  0  0
    3.2132   -2.5764    0.0000 C   0  0  0  0  0  0  0  0  0  0  0  0
    2.4593   -2.9115    0.0000 C   0  0  0  0  0  0  0  0  0  0  0  0
    1.7921   -2.4262    0.0000 C   0  0  0  0  0  0  0  0  0  0  0  0
    1.9069   -3.5242    0.0000 O   0  0  0  0  0  0  0  0  0  0  0  0
    2.8011   -1.8617    0.0000 C   0  0  0  0  0  0  0  0  0  0  0  0
    3.3535   -1.2489    0.0000 C   0  0  0  0  0  0  0  0  0  0  0  0
    4.1070   -1.5849    0.0000 C   0  0  0  0  0  0  0  0  0  0  0  0
    4.8609   -1.2498    0.0000 C   0  0  0  0  0  0  0  0  0  0  0  0
    4.9476   -0.4294    0.0000 C   0  0  0  0  0  0  0  0  0  0  0  0
    5.7015   -0.0943    0.0000 C   0  0  0  0  0  0  0  0  0  0  0  0
    5.7882    0.7261    0.0000 Cl  0  0  0  0  0  0  0  0  0  0  0  0
    6.3686   -0.5796    0.0000 C   0  0  0  0  0  0  0  0  0  0  0  0
    7.1225   -0.2445    0.0000 C   0  0  0  0  0  0  0  0  0  0  0  0
    7.7896   -0.7298    0.0000 C   0  0  0  0  0  0  0  0  0  0  0  0
    8.5435   -0.3947    0.0000 O   0  0  0  0  0  0  0  0  0  0  0  0
    7.7029   -1.5503    0.0000 C   0  0  0  0  0  0  0  0  0  0  0  0
    7.6162   -2.3707    0.0000 C   0  0  0  0  0  0  0  0  0  0  0  0
    6.9490   -1.8854    0.0000 C   0  0  0  0  0  0  0  0  0  0  0  0
    6.2819   -1.4000    0.0000 C   0  0  0  0  0  0  0  0  0  0  0  0
    6.1951   -2.2205    0.0000 C   0  0  0  0  0  0  0  0  0  0  0  0
    5.5280   -1.7351    0.0000 C   0  0  0  0  0  0  0  0  0  0  0  0
    5.4413   -2.5556    0.0000 C   0  0  0  0  0  0  0  0  0  0  0  0
    4.6874   -2.8907    0.0000 C   0  0  0  0  0  0  0  0  0  0  0  0
    4.0202   -2.4053    0.0000 C   0  0  0  0  0  0  0  0  0  0  0  0
    3.8482   -3.2122    0.0000 C   0  0  0  0  0  0  0  0  0  0  0  0
  1  2  1  0  0  0  0
  2  3  2  0  0  0  0
  2  4  1  0  0  0  0
  4  5  1  0  0  0  0
  5  6  1  0  0  0  0
  6  7  1  0  0  0  0
  6  8  2  0  0  0  0
  5  9  1  0  0  0  0
  9 10  1  0  0  0  0
 10 11  1  0  0  0  0
 11 12  1  0  0  0  0
 12 13  1  0  0  0  0
 13 14  2  0  0  0  0
 14 15  1  0  0  0  0
 14 16  1  0  0  0  0
 16 17  2  0  0  0  0
 17 18  1  0  0  0  0
 18 19  2  0  0  0  0
 18 20  1  0  0  0  0
 20 21  1  0  0  0  0
 21 22  1  0  0  0  0
 20 22  1  0  0  0  0
 22 23  1  0  0  0  0
 16 23  1  0  0  0  0
 23 24  1  0  0  0  0
 23 25  1  0  0  0  0
 12 25  1  0  0  0  0
 25 26  1  0  0  0  0
 26 27  1  0  0  0  0
 27 28  1  0  0  0  0
 11 28  1  0  0  0  0
  5 28  1  0  0  0  0
 28 29  1  0  0  0  0
M  END
> <activity>
8.734220403

> <InChiKey>
UWFYSQMTEOIJJG-UHFFFAOYSA-N

$$$$

  Mrv2220 08292413012D          

 22 22  0  0  0  0            999 V2000
    2.1434   -6.1875    0.0000 C   0  0  0  0  0  0  0  0  0  0  0  0
    2.8579   -6.6000    0.0000 C   0  0  0  0  0  0  0  0  0  0  0  0
    3.5724   -6.1875    0.0000 C   0  0  0  0  0  0  0  0  0  0  0  0
    4.2868   -6.6000    0.0000 C   0  0  0  0  0  0  0  0  0  0  0  0
    5.0013   -6.1875    0.0000 C   0  0  0  0  0  0  0  0  0  0  0  0
    5.7158   -6.6000    0.0000 C   0  0  0  0  0  0  0  0  0  0  0  0
    6.4302   -6.1875    0.0000 C   0  0  0  0  0  0  0  0  0  0  0  0
    7.1447   -6.6000    0.0000 C   0  0  0  0  0  0  0  0  0  0  0  0
    7.8592   -6.1875    0.0000 C   0  0  0  0  0  0  0  0  0  0  0  0
    8.5737   -6.6000    0.0000 C   0  0  0  0  0  0  0  0  0  0  0  0
    9.2881   -6.1875    0.0000 O   0  0  0  0  0  0  0  0  0  0  0  0
   10.0026   -6.6000    0.0000 C   0  0  0  0  0  0  0  0  0  0  0  0
   10.7171   -6.1875    0.0000 O   0  0  0  0  0  0  0  0  0  0  0  0
   11.4315   -6.6000    0.0000 C   0  0  0  0  0  0  0  0  0  0  0  0
   12.1460   -6.1875    0.0000 C   0  0  0  0  0  0  0  0  0  0  0  0
   12.1460   -5.3625    0.0000 O   0  0  0  0  0  0  0  0  0  0  0  0
   11.4315   -7.4250    0.0000 C   0  0  0  0  0  0  0  0  0  0  0  0
   12.1460   -7.8375    0.0000 O   0  0  0  0  0  0  0  0  0  0  0  0
   10.7171   -7.8375    0.0000 C   0  0  0  0  0  0  0  0  0  0  0  0
   10.7171   -8.6625    0.0000 O   0  0  0  0  0  0  0  0  0  0  0  0
   10.0026   -7.4250    0.0000 C   0  0  0  0  0  0  0  0  0  0  0  0
    9.2881   -7.8375    0.0000 O   0  0  0  0  0  0  0  0  0  0  0  0
  1  2  1  0  0  0  0
  2  3  1  0  0  0  0
  3  4  1  0  0  0  0
  4  5  1  0  0  0  0
  5  6  1  0  0  0  0
  6  7  1  0  0  0  0
  7  8  1  0  0  0  0
  8  9  1  0  0  0  0
  9 10  1  0  0  0  0
 10 11  1  0  0  0  0
 11 12  1  0  0  0  0
 12 13  1  0  0  0  0
 13 14  1  0  0  0  0
 14 15  1  0  0  0  0
 15 16  1  0  0  0  0
 14 17  1  0  0  0  0
 17 18  1  0  0  0  0
 17 19  1  0  0  0  0
 19 20  1  0  0  0  0
 19 21  1  0  0  0  0
 12 21  1  0  0  0  0
 21 22  1  0  0  0  0
M  END
> <activity>
60.44092833

> <InChiKey>
JDRSMPFHFNXQRB-UHFFFAOYSA-N

$$$$

  Mrv2220 08292413012D          

  5  4  0  0  0  0            999 V2000
    1.6500    1.4289    0.0000 N   0  0  0  0  0  0  0  0  0  0  0  0
    1.2375    0.7145    0.0000 C   0  0  0  0  0  0  0  0  0  0  0  0
    0.8250    0.0000    0.0000 C   0  0  0  0  0  0  0  0  0  0  0  0
    1.2375   -0.7145    0.0000 Br  0  0  0  0  0  0  0  0  0  0  0  0
    0.0000    0.0000    0.0000 Br  0  0  0  0  0  0  0  0  0  0  0  0
  1  2  3  0  0  0  0
  2  3  1  0  0  0  0
  3  4  1  0  0  0  0
  3  5  1  0  0  0  0
M  END
> <activity>
-2.603174603

> <InChiKey>
NDSBDLSWTGLNQA-UHFFFAOYSA-N

$$$$

  Mrv2220 08292413012D          

 14 15  0  0  0  0            999 V2000
    1.4289   -2.4750    0.0000 O   0  0  0  0  0  0  0  0  0  0  0  0
    1.4289   -1.6500    0.0000 C   0  0  0  0  0  0  0  0  0  0  0  0
    0.7145   -1.2375    0.0000 C   0  0  0  0  0  0  0  0  0  0  0  0
    0.0000   -1.6500    0.0000 Cl  0  0  0  0  0  0  0  0  0  0  0  0
    0.7145   -0.4125    0.0000 C   0  0  0  0  0  0  0  0  0  0  0  0
    0.0000    0.0000    0.0000 Cl  0  0  0  0  0  0  0  0  0  0  0  0
    1.4289    0.0000    0.0000 C   0  0  0  0  0  0  0  0  0  0  0  0
    1.4289    0.8250    0.0000 O   0  0  0  0  0  0  0  0  0  0  0  0
    2.1434   -0.4125    0.0000 C   0  0  0  0  0  0  0  0  0  0  0  0
    2.8579    0.0000    0.0000 C   0  0  0  0  0  0  0  0  0  0  0  0
    3.5724   -0.4125    0.0000 C   0  0  0  0  0  0  0  0  0  0  0  0
    3.5724   -1.2375    0.0000 C   0  0  0  0  0  0  0  0  0  0  0  0
    2.8579   -1.6500    0.0000 C   0  0  0  0  0  0  0  0  0  0  0  0
    2.1434   -1.2375    0.0000 C   0  0  0  0  0  0  0  0  0  0  0  0
  1  2  2  0  0  0  0
  2  3  1  0  0  0  0
  3  4  1  0  0  0  0
  3  5  2  0  0  0  0
  5  6  1  0  0  0  0
  5  7  1  0  0  0  0
  7  8  2  0  0  0  0
  7  9  1  0  0  0  0
  9 10  4  0  0  0  0
 10 11  4  0  0  0  0
 11 12  4  0  0  0  0
 12 13  4  0  0  0  0
 13 14  4  0  0  0  0
  9 14  4  0  0  0  0
  2 14  1  0  0  0  0
M  END
> <activity>
92.68395403

> <InChiKey>
SVPKNMBRVBMTLB-UHFFFAOYSA-N

$$$$

  Mrv2220 08292413012D          

  6  5  0  0  0  0            999 V2000
    0.8250    1.4289    0.0000 O   0  0  0  0  0  0  0  0  0  0  0  0
    1.2375    0.7145    0.0000 C   0  0  0  0  0  0  0  0  0  0  0  0
    2.0625    0.7145    0.0000 O   0  0  0  0  0  0  0  0  0  0  0  0
    0.8250    0.0000    0.0000 C   0  0  0  0  0  0  0  0  0  0  0  0
    1.2375   -0.7145    0.0000 Cl  0  0  0  0  0  0  0  0  0  0  0  0
    0.0000    0.0000    0.0000 Cl  0  0  0  0  0  0  0  0  0  0  0  0
  1  2  2  0  0  0  0
  2  3  1  0  0  0  0
  2  4  1  0  0  0  0
  4  5  1  0  0  0  0
  4  6  1  0  0  0  0
M  END
> <activity>
10.35384463

> <InChiKey>
JXTHNDFMNIQAHM-UHFFFAOYSA-N

$$$$

  Mrv2220 08292413012D          

 15 14  0  0  0  0            999 V2000
    3.3000    1.4289    0.0000 C   0  0  0  0  0  0  0  0  0  0  0  0
    2.8875    0.7145    0.0000 O   0  0  0  0  0  0  0  0  0  0  0  0
    2.0625    0.7145    0.0000 P   0  0  0  0  0  0  0  0  0  0  0  0
    2.0625    1.5395    0.0000 O   0  0  0  0  0  0  0  0  0  0  0  0
    2.0625   -0.1105    0.0000 O   0  0  0  0  0  0  0  0  0  0  0  0
    2.7770   -0.5230    0.0000 C   0  0  0  0  0  0  0  0  0  0  0  0
    1.2375    0.7145    0.0000 O   0  0  0  0  0  0  0  0  0  0  0  0
    0.8250    0.0000    0.0000 C   0  0  0  0  0  0  0  0  0  0  0  0
    1.2375   -0.7145    0.0000 C   0  0  0  0  0  0  0  0  0  0  0  0
    0.0000    0.0000    0.0000 C   0  0  0  0  0  0  0  0  0  0  0  0
   -0.4125   -0.7145    0.0000 C   0  0  0  0  0  0  0  0  0  0  0  0
    0.0000   -1.4289    0.0000 O   0  0  0  0  0  0  0  0  0  0  0  0
   -1.2375   -0.7145    0.0000 N   0  0  0  0  0  0  0  0  0  0  0  0
   -1.6500   -1.4289    0.0000 C   0  0  0  0  0  0  0  0  0  0  0  0
   -1.6500    0.0000    0.0000 C   0  0  0  0  0  0  0  0  0  0  0  0
  1  2  1  0  0  0  0
  2  3  1  0  0  0  0
  3  4  2  0  0  0  0
  3  5  1  0  0  0  0
  5  6  1  0  0  0  0
  3  7  1  0  0  0  0
  7  8  1  0  0  0  0
  8  9  1  0  0  0  0
  8 10  2  0  0  0  0
 10 11  1  4  0  0  0
 11 12  2  0  0  0  0
 11 13  1  0  0  0  0
 13 14  1  0  0  0  0
 13 15  1  0  0  0  0
M  END
> <activity>
8.167667941

> <InChiKey>
VEENJGZXVHKXNB-UHFFFAOYSA-N

$$$$

  Mrv2220 08292413012D          

 11 10  0  0  0  0            999 V2000
    2.9980    2.5559    0.0000 C   0  0  0  0  0  0  0  0  0  0  0  0
    3.7125    2.1434    0.0000 C   0  0  0  0  0  0  0  0  0  0  0  0
    4.4270    2.5559    0.0000 O   0  0  0  0  0  0  0  0  0  0  0  0
    5.1414    2.1434    0.0000 C   0  0  0  0  0  0  0  0  0  0  0  0
    5.1414    1.3184    0.0000 O   0  0  0  0  0  0  0  0  0  0  0  0
    5.8559    2.5559    0.0000 C   0  0  0  0  0  0  0  0  0  0  0  0
    6.5704    2.1434    0.0000 C   0  0  0  0  0  0  0  0  0  0  0  0
    6.5704    1.3184    0.0000 O   0  0  0  0  0  0  0  0  0  0  0  0
    7.2849    2.5559    0.0000 O   0  0  0  0  0  0  0  0  0  0  0  0
    7.9993    2.1434    0.0000 C   0  0  0  0  0  0  0  0  0  0  0  0
    8.7138    2.5559    0.0000 C   0  0  0  0  0  0  0  0  0  0  0  0
  1  2  1  0  0  0  0
  2  3  1  0  0  0  0
  3  4  1  0  0  0  0
  4  5  2  0  0  0  0
  4  6  1  0  0  0  0
  6  7  1  0  0  0  0
  7  8  2  0  0  0  0
  7  9  1  0  0  0  0
  9 10  1  0  0  0  0
 10 11  1  0  0  0  0
M  END
> <activity>
8.336183576

> <InChiKey>
IYXGSMUGOJNHAZ-UHFFFAOYSA-N

$$$$

  Mrv2220 08292413012D          

  9  8  0  0  0  0            999 V2000
    2.9980    2.5559    0.0000 C   0  0  0  0  0  0  0  0  0  0  0  0
    3.7125    2.1434    0.0000 O   0  0  0  0  0  0  0  0  0  0  0  0
    4.4270    2.5559    0.0000 C   0  0  0  0  0  0  0  0  0  0  0  0
    5.1414    2.1434    0.0000 C   0  0  0  0  0  0  0  0  0  0  0  0
    5.8559    2.5559    0.0000 O   0  0  0  0  0  0  0  0  0  0  0  0
    6.5704    2.1434    0.0000 C   0  0  0  0  0  0  0  0  0  0  0  0
    7.2849    2.5559    0.0000 C   0  0  0  0  0  0  0  0  0  0  0  0
    7.9993    2.1434    0.0000 O   0  0  0  0  0  0  0  0  0  0  0  0
    8.7138    2.5559    0.0000 C   0  0  0  0  0  0  0  0  0  0  0  0
  1  2  1  0  0  0  0
  2  3  1  0  0  0  0
  3  4  1  0  0  0  0
  4  5  1  0  0  0  0
  5  6  1  0  0  0  0
  6  7  1  0  0  0  0
  7  8  1  0  0  0  0
  8  9  1  0  0  0  0
M  END
> <activity>
7.092547596

> <InChiKey>
SBZXBUIDTXKZTM-UHFFFAOYSA-N

$$$$

  Mrv2220 08292413012D          

 27 29  0  0  0  0            999 V2000
   -1.4289   -0.0000    0.0000 C   0  0  0  0  0  0  0  0  0  0  0  0
   -0.7145   -0.4125    0.0000 O   0  0  0  0  0  0  0  0  0  0  0  0
   -0.7145   -1.2375    0.0000 C   0  0  0  0  0  0  0  0  0  0  0  0
    0.0000   -1.6500    0.0000 C   0  0  0  0  0  0  0  0  0  0  0  0
    0.0000   -2.4750    0.0000 C   0  0  0  0  0  0  0  0  0  0  0  0
   -0.7145   -2.8875    0.0000 C   0  0  0  0  0  0  0  0  0  0  0  0
   -0.7145   -3.7125    0.0000 C   0  0  0  0  0  0  0  0  0  0  0  0
   -1.4289   -4.1250    0.0000 C   0  0  0  0  0  0  0  0  0  0  0  0
   -1.4289   -4.9500    0.0000 C   0  0  0  0  0  0  0  0  0  0  0  0
   -0.7145   -5.3625    0.0000 O   0  0  0  0  0  0  0  0  0  0  0  0
   -2.1434   -5.3625    0.0000 N   0  0  0  0  0  0  0  0  0  0  0  0
   -2.1434   -6.1875    0.0000 C   0  0  0  0  0  0  0  0  0  0  0  0
   -2.8579   -6.6000    0.0000 C   0  0  0  0  0  0  0  0  0  0  0  0
   -3.5724   -6.1875    0.0000 O   0  0  0  0  0  0  0  0  0  0  0  0
   -3.5724   -5.3625    0.0000 C   0  0  0  0  0  0  0  0  0  0  0  0
   -2.8579   -4.9500    0.0000 C   0  0  0  0  0  0  0  0  0  0  0  0
    0.0000   -4.1250    0.0000 C   0  0  0  0  0  0  0  0  0  0  0  0
    0.7145   -3.7125    0.0000 C   0  0  0  0  0  0  0  0  0  0  0  0
    1.4289   -4.1250    0.0000 C   0  0  0  0  0  0  0  0  0  0  0  0
    1.4289   -4.9500    0.0000 C   0  0  0  0  0  0  0  0  0  0  0  0
    2.1434   -5.3625    0.0000 Cl  0  0  0  0  0  0  0  0  0  0  0  0
    0.7145   -5.3625    0.0000 C   0  0  0  0  0  0  0  0  0  0  0  0
    0.0000   -4.9500    0.0000 C   0  0  0  0  0  0  0  0  0  0  0  0
   -1.4289   -2.4750    0.0000 C   0  0  0  0  0  0  0  0  0  0  0  0
   -1.4289   -1.6500    0.0000 C   0  0  0  0  0  0  0  0  0  0  0  0
   -2.1434   -1.2375    0.0000 O   0  0  0  0  0  0  0  0  0  0  0  0
   -2.1434   -0.4125    0.0000 C   0  0  0  0  0  0  0  0  0  0  0  0
  1  2  1  0  0  0  0
  2  3  1  0  0  0  0
  3  4  4  0  0  0  0
  4  5  4  0  0  0  0
  5  6  4  0  0  0  0
  6  7  1  0  0  0  0
  7  8  2  0  0  0  0
  8  9  1  4  0  0  0
  9 10  2  0  0  0  0
  9 11  1  0  0  0  0
 11 12  1  0  0  0  0
 12 13  1  0  0  0  0
 13 14  1  0  0  0  0
 14 15  1  0  0  0  0
 15 16  1  0  0  0  0
 11 16  1  0  0  0  0
  7 17  1  0  0  0  0
 17 18  4  0  0  0  0
 18 19  4  0  0  0  0
 19 20  4  0  0  0  0
 20 21  1  0  0  0  0
 20 22  4  0  0  0  0
 22 23  4  0  0  0  0
 17 23  4  0  0  0  0
  6 24  4  0  0  0  0
 24 25  4  0  0  0  0
  3 25  4  0  0  0  0
 25 26  1  0  0  0  0
 26 27  1  0  0  0  0
M  END
> <activity>
32.11592903

> <InChiKey>
QNBTYORWCCMPQP-UHFFFAOYSA-N

$$$$

  Mrv2220 08292413012D          

  6  5  0  0  0  0            999 V2000
    2.4750   -1.4289    0.0000 C   0  0  0  0  0  0  0  0  0  0  0  0
    2.0625   -0.7145    0.0000 O   0  0  0  0  0  0  0  0  0  0  0  0
    1.2375   -0.7145    0.0000 P   0  0  0  0  0  0  0  0  0  0  0  0
    0.8250   -1.4289    0.0000 O   0  0  0  0  0  0  0  0  0  0  0  0
    0.8250    0.0000    0.0000 O   0  0  0  0  0  0  0  0  0  0  0  0
    0.0000    0.0000    0.0000 C   0  0  0  0  0  0  0  0  0  0  0  0
  1  2  1  0  0  0  0
  2  3  1  0  0  0  0
  3  4  2  0  0  0  0
  3  5  1  0  0  0  0
  5  6  1  0  0  0  0
M  END
> <activity>
11.10342729

> <InChiKey>
HZCDANOFLILNSA-UHFFFAOYSA-N

$$$$

  Mrv2220 08292413012D          

  3  2  0  0  0  0            999 V2000
    1.2375   -0.7145    0.0000 C   0  0  0  0  0  0  0  0  0  0  0  0
    1.9520   -1.1270    0.0000 N   0  0  0  0  0  0  0  0  0  0  0  0
    2.6664   -0.7145    0.0000 C   0  0  0  0  0  0  0  0  0  0  0  0
  1  2  1  0  0  0  0
  2  3  1  0  0  0  0
M  END
> <activity>
2.714483852

> <InChiKey>
ROSDSFDQCJNGOL-UHFFFAOYSA-N

$$$$

  Mrv2220 08292413012D          

 30 29  0  0  0  0            999 V2000
   13.4211    8.5737    0.0000 C   0  0  0  0  0  0  0  0  0  0  0  0
   14.1355    8.9862    0.0000 C   0  0  0  0  0  0  0  0  0  0  0  0
   14.8500    8.5737    0.0000 C   0  0  0  0  0  0  0  0  0  0  0  0
   15.5645    8.9862    0.0000 C   0  0  0  0  0  0  0  0  0  0  0  0
   16.2789    8.5737    0.0000 C   0  0  0  0  0  0  0  0  0  0  0  0
   16.9934    8.9862    0.0000 C   0  0  0  0  0  0  0  0  0  0  0  0
   17.7079    8.5737    0.0000 C   0  0  0  0  0  0  0  0  0  0  0  0
   18.4224    8.9862    0.0000 C   0  0  0  0  0  0  0  0  0  0  0  0
   19.1368    8.5737    0.0000 O   0  0  0  0  0  0  0  0  0  0  0  0
   19.8513    8.9862    0.0000 C   0  0  0  0  0  0  0  0  0  0  0  0
   19.8513    9.8112    0.0000 O   0  0  0  0  0  0  0  0  0  0  0  0
   20.5658    8.5737    0.0000 C   0  0  0  0  0  0  0  0  0  0  0  0
   21.2802    8.9862    0.0000 C   0  0  0  0  0  0  0  0  0  0  0  0
   21.9947    8.5737    0.0000 C   0  0  0  0  0  0  0  0  0  0  0  0
   22.7092    8.9862    0.0000 C   0  0  0  0  0  0  0  0  0  0  0  0
   23.4237    8.5737    0.0000 C   0  0  0  0  0  0  0  0  0  0  0  0
   24.1381    8.9862    0.0000 C   0  0  0  0  0  0  0  0  0  0  0  0
   24.8526    8.5737    0.0000 C   0  0  0  0  0  0  0  0  0  0  0  0
   25.5671    8.9862    0.0000 C   0  0  0  0  0  0  0  0  0  0  0  0
   26.2815    8.5737    0.0000 C   0  0  0  0  0  0  0  0  0  0  0  0
   26.2815    7.7487    0.0000 O   0  0  0  0  0  0  0  0  0  0  0  0
   26.9960    8.9862    0.0000 O   0  0  0  0  0  0  0  0  0  0  0  0
   27.7105    8.5737    0.0000 C   0  0  0  0  0  0  0  0  0  0  0  0
   28.4249    8.9862    0.0000 C   0  0  0  0  0  0  0  0  0  0  0  0
   29.1394    8.5737    0.0000 C   0  0  0  0  0  0  0  0  0  0  0  0
   29.8539    8.9862    0.0000 C   0  0  0  0  0  0  0  0  0  0  0  0
   30.5684    8.5737    0.0000 C   0  0  0  0  0  0  0  0  0  0  0  0
   31.2828    8.9862    0.0000 C   0  0  0  0  0  0  0  0  0  0  0  0
   31.9973    8.5737    0.0000 C   0  0  0  0  0  0  0  0  0  0  0  0
   32.7118    8.9862    0.0000 C   0  0  0  0  0  0  0  0  0  0  0  0
  1  2  1  0  0  0  0
  2  3  1  0  0  0  0
  3  4  1  0  0  0  0
  4  5  1  0  0  0  0
  5  6  1  0  0  0  0
  6  7  1  0  0  0  0
  7  8  1  0  0  0  0
  8  9  1  0  0  0  0
  9 10  1  0  0  0  0
 10 11  2  0  0  0  0
 10 12  1  0  0  0  0
 12 13  1  0  0  0  0
 13 14  1  0  0  0  0
 14 15  1  0  0  0  0
 15 16  1  0  0  0  0
 16 17  1  0  0  0  0
 17 18  1  0  0  0  0
 18 19  1  0  0  0  0
 19 20  1  0  0  0  0
 20 21  2  0  0  0  0
 20 22  1  0  0  0  0
 22 23  1  0  0  0  0
 23 24  1  0  0  0  0
 24 25  1  0  0  0  0
 25 26  1  0  0  0  0
 26 27  1  0  0  0  0
 27 28  1  0  0  0  0
 28 29  1  0  0  0  0
 29 30  1  0  0  0  0
M  END
> <activity>
14.46575501

> <InChiKey>
MIMDHDXOBDPUQW-UHFFFAOYSA-N

$$$$

  Mrv2220 08292413012D          

 18 19  0  0  0  0            999 V2000
    0.7145   -1.2375    0.0000 C   0  0  0  0  0  0  0  0  0  0  0  0
    0.7145   -0.4125    0.0000 N   0  0  0  0  0  0  0  0  0  0  0  0
    0.0000   -0.0000    0.0000 C   0  0  0  0  0  0  0  0  0  0  0  0
    1.4289    0.0000    0.0000 C   0  0  0  0  0  0  0  0  0  0  0  0
    1.4289    0.8250    0.0000 O   0  0  0  0  0  0  0  0  0  0  0  0
    2.1434   -0.4125    0.0000 C   0  0  0  0  0  0  0  0  0  0  0  0
    2.1434   -1.2375    0.0000 C   0  0  0  0  0  0  0  0  0  0  0  0
    2.8579   -1.6500    0.0000 C   0  0  0  0  0  0  0  0  0  0  0  0
    2.8579   -2.4750    0.0000 C   0  0  0  0  0  0  0  0  0  0  0  0
    2.1434   -2.8875    0.0000 C   0  0  0  0  0  0  0  0  0  0  0  0
    1.4289   -2.4750    0.0000 C   0  0  0  0  0  0  0  0  0  0  0  0
    1.4289   -1.6500    0.0000 C   0  0  0  0  0  0  0  0  0  0  0  0
    2.8579    0.0000    0.0000 C   0  0  0  0  0  0  0  0  0  0  0  0
    2.8579    0.8250    0.0000 C   0  0  0  0  0  0  0  0  0  0  0  0
    3.5724    1.2375    0.0000 C   0  0  0  0  0  0  0  0  0  0  0  0
    4.2868    0.8250    0.0000 C   0  0  0  0  0  0  0  0  0  0  0  0
    4.2868    0.0000    0.0000 C   0  0  0  0  0  0  0  0  0  0  0  0
    3.5724   -0.4125    0.0000 C   0  0  0  0  0  0  0  0  0  0  0  0
  1  2  1  0  0  0  0
  2  3  1  0  0  0  0
  2  4  1  0  0  0  0
  4  5  2  0  0  0  0
  4  6  1  0  0  0  0
  6  7  1  0  0  0  0
  7  8  4  0  0  0  0
  8  9  4  0  0  0  0
  9 10  4  0  0  0  0
 10 11  4  0  0  0  0
 11 12  4  0  0  0  0
  7 12  4  0  0  0  0
  6 13  1  0  0  0  0
 13 14  4  0  0  0  0
 14 15  4  0  0  0  0
 15 16  4  0  0  0  0
 16 17  4  0  0  0  0
 17 18  4  0  0  0  0
 13 18  4  0  0  0  0
M  END
> <activity>
8.21650457

> <InChiKey>
QAHFOPIILNICLA-UHFFFAOYSA-N

$$$$

  Mrv2220 08292413012D          

 11 10  0  0  0  0            999 V2000
    3.7125   -2.1434    0.0000 C   0  0  0  0  0  0  0  0  0  0  0  0
    3.3000   -1.4289    0.0000 C   0  0  0  0  0  0  0  0  0  0  0  0
    2.4750   -1.4289    0.0000 Si  0  0  0  0  0  0  0  0  0  0  0  0
    2.4750   -0.6039    0.0000 C   0  0  0  0  0  0  0  0  0  0  0  0
    2.4750   -2.2539    0.0000 C   0  0  0  0  0  0  0  0  0  0  0  0
    1.6500   -1.4289    0.0000 O   0  0  0  0  0  0  0  0  0  0  0  0
    1.2375   -0.7145    0.0000 Si  0  0  0  0  0  0  0  0  0  0  0  0
    1.9520   -0.3020    0.0000 C   0  0  0  0  0  0  0  0  0  0  0  0
    0.5230   -1.1270    0.0000 C   0  0  0  0  0  0  0  0  0  0  0  0
    0.8250    0.0000    0.0000 C   0  0  0  0  0  0  0  0  0  0  0  0
    0.0000    0.0000    0.0000 C   0  0  0  0  0  0  0  0  0  0  0  0
  1  2  2  0  0  0  0
  2  3  1  0  0  0  0
  3  4  1  0  0  0  0
  3  5  1  0  0  0  0
  3  6  1  0  0  0  0
  6  7  1  0  0  0  0
  7  8  1  0  0  0  0
  7  9  1  0  0  0  0
  7 10  1  0  0  0  0
 10 11  2  0  0  0  0
M  END
> <activity>
10.80857354

> <InChiKey>
BITPLIXHRASDQB-UHFFFAOYSA-N

$$$$

  Mrv2220 08292413012D          

 14 13  0  0  0  0            999 V2000
    5.4730    3.9849    0.0000 C   0  0  0  0  0  0  0  0  0  0  0  0
    6.1875    3.5724    0.0000 C   0  0  0  0  0  0  0  0  0  0  0  0
    6.9020    3.9849    0.0000 C   0  0  0  0  0  0  0  0  0  0  0  0
    7.6164    3.5724    0.0000 C   0  0  0  0  0  0  0  0  0  0  0  0
    8.3309    3.9849    0.0000 C   0  0  0  0  0  0  0  0  0  0  0  0
    9.0454    3.5724    0.0000 C   0  0  0  0  0  0  0  0  0  0  0  0
    9.7599    3.9849    0.0000 C   0  0  0  0  0  0  0  0  0  0  0  0
   10.4743    3.5724    0.0000 C   0  0  0  0  0  0  0  0  0  0  0  0
   11.1888    3.9849    0.0000 C   0  0  0  0  0  0  0  0  0  0  0  0
   11.9033    3.5724    0.0000 C   0  0  0  0  0  0  0  0  0  0  0  0
   12.6177    3.9849    0.0000 C   0  0  0  0  0  0  0  0  0  0  0  0
   13.3322    3.5724    0.0000 C   0  0  0  0  0  0  0  0  0  0  0  0
   14.0467    3.9849    0.0000 O   0  0  0  0  0  0  0  0  0  0  0  0
   13.3322    2.7474    0.0000 O   0  0  0  0  0  0  0  0  0  0  0  0
  1  2  1  0  0  0  0
  2  3  1  0  0  0  0
  3  4  1  0  0  0  0
  4  5  1  0  0  0  0
  5  6  1  0  0  0  0
  6  7  1  0  0  0  0
  7  8  1  0  0  0  0
  8  9  1  0  0  0  0
  9 10  1  0  0  0  0
 10 11  1  0  0  0  0
 11 12  1  0  0  0  0
 12 13  2  0  0  0  0
 12 14  1  0  0  0  0
M  END
> <activity>
98.94099567

> <InChiKey>
POULHZVOKOAJMA-UHFFFAOYSA-N

$$$$

  Mrv2220 08292413012D          

 18 21  0  0  0  0            999 V2000
    4.2868    1.6500    0.0000 O   0  0  0  0  0  0  0  0  0  0  0  0
    3.5724    2.0625    0.0000 C   0  0  0  0  0  0  0  0  0  0  0  0
    3.5724    2.8875    0.0000 O   0  0  0  0  0  0  0  0  0  0  0  0
    4.2868    3.3000    0.0000 C   0  0  0  0  0  0  0  0  0  0  0  0
    4.2868    4.1250    0.0000 C   0  0  0  0  0  0  0  0  0  0  0  0
    3.5724    4.5375    0.0000 C   0  0  0  0  0  0  0  0  0  0  0  0
    3.5724    5.3625    0.0000 C   0  0  0  0  0  0  0  0  0  0  0  0
    4.2868    5.7750    0.0000 C   0  0  0  0  0  0  0  0  0  0  0  0
    5.0013    6.1875    0.0000 O   0  0  0  0  0  0  0  0  0  0  0  0
    5.0013    5.3625    0.0000 C   0  0  0  0  0  0  0  0  0  0  0  0
    5.0013    4.5375    0.0000 C   0  0  0  0  0  0  0  0  0  0  0  0
    2.8579    1.6500    0.0000 C   0  0  0  0  0  0  0  0  0  0  0  0
    2.8579    0.8250    0.0000 C   0  0  0  0  0  0  0  0  0  0  0  0
    2.1434    0.4125    0.0000 C   0  0  0  0  0  0  0  0  0  0  0  0
    1.4289    0.8250    0.0000 C   0  0  0  0  0  0  0  0  0  0  0  0
    0.7145    1.2375    0.0000 O   0  0  0  0  0  0  0  0  0  0  0  0
    1.4289    1.6500    0.0000 C   0  0  0  0  0  0  0  0  0  0  0  0
    2.1434    2.0625    0.0000 C   0  0  0  0  0  0  0  0  0  0  0  0
  1  2  2  0  0  0  0
  2  3  1  0  0  0  0
  3  4  1  0  0  0  0
  4  5  1  0  0  0  0
  5  6  1  0  0  0  0
  6  7  1  0  0  0  0
  7  8  1  0  0  0  0
  8  9  1  0  0  0  0
  9 10  1  0  0  0  0
  8 10  1  0  0  0  0
 10 11  1  0  0  0  0
  5 11  1  0  0  0  0
  2 12  1  0  0  0  0
 12 13  1  0  0  0  0
 13 14  1  0  0  0  0
 14 15  1  0  0  0  0
 15 16  1  0  0  0  0
 16 17  1  0  0  0  0
 15 17  1  0  0  0  0
 17 18  1  0  0  0  0
 12 18  1  0  0  0  0
M  END
> <activity>
4.024137931

> <InChiKey>
YXALYBMHAYZKAP-UHFFFAOYSA-N

$$$$

  Mrv2220 08292413012D          

 29 33  0  0  0  0            999 V2000
    4.1570    1.1270    0.0000 C   0  0  0  0  0  0  0  0  0  0  0  0
    3.7445    0.4125    0.0000 N   0  0  0  0  0  0  0  0  0  0  0  0
    4.1570   -0.3020    0.0000 C   0  0  0  0  0  0  0  0  0  0  0  0
    3.7445   -1.0164    0.0000 O   0  0  0  0  0  0  0  0  0  0  0  0
    4.9820   -0.3020    0.0000 C   0  0  0  0  0  0  0  0  0  0  0  0
    5.3945    0.4125    0.0000 C   0  0  0  0  0  0  0  0  0  0  0  0
    4.9820    1.1270    0.0000 C   0  0  0  0  0  0  0  0  0  0  0  0
    5.3945    1.8414    0.0000 C   0  0  0  0  0  0  0  0  0  0  0  0
    6.2195    1.8414    0.0000 C   0  0  0  0  0  0  0  0  0  0  0  0
    6.6320    1.1270    0.0000 C   0  0  0  0  0  0  0  0  0  0  0  0
    7.4390    0.9554    0.0000 O   0  0  0  0  0  0  0  0  0  0  0  0
    7.5253    0.1350    0.0000 C   0  0  0  0  0  0  0  0  0  0  0  0
    6.7716   -0.2006    0.0000 C   0  0  0  0  0  0  0  0  0  0  0  0
    6.2195    0.4125    0.0000 C   0  0  0  0  0  0  0  0  0  0  0  0
    2.9195    0.4125    0.0000 C   0  0  0  0  0  0  0  0  0  0  0  0
    2.5070   -0.3020    0.0000 C   0  0  0  0  0  0  0  0  0  0  0  0
    1.6820   -0.3020    0.0000 C   0  0  0  0  0  0  0  0  0  0  0  0
    1.2695    0.4125    0.0000 C   0  0  0  0  0  0  0  0  0  0  0  0
    0.7846   -0.2549    0.0000 C   0  0  0  0  0  0  0  0  0  0  0  0
    0.0000   -0.0000    0.0000 C   0  0  0  0  0  0  0  0  0  0  0  0
   -0.0000    0.8250    0.0000 C   0  0  0  0  0  0  0  0  0  0  0  0
    0.7846    1.0799    0.0000 O   0  0  0  0  0  0  0  0  0  0  0  0
    1.6820    1.1270    0.0000 C   0  0  0  0  0  0  0  0  0  0  0  0
    2.5070    1.1270    0.0000 C   0  0  0  0  0  0  0  0  0  0  0  0
    2.9195    1.8414    0.0000 N   0  0  0  0  0  0  0  0  0  0  0  0
    2.5840    2.5951    0.0000 C   0  0  0  0  0  0  0  0  0  0  0  0
    3.1971    3.1471    0.0000 C   0  0  0  0  0  0  0  0  0  0  0  0
    3.9116    2.7346    0.0000 C   0  0  0  0  0  0  0  0  0  0  0  0
    3.7400    1.9277    0.0000 C   0  0  0  0  0  0  0  0  0  0  0  0
  1  2  1  0  0  0  0
  2  3  1  0  0  0  0
  3  4  2  0  0  0  0
  3  5  1  0  0  0  0
  5  6  1  0  0  0  0
  6  7  4  0  0  0  0
  7  8  4  0  0  0  0
  8  9  4  0  0  0  0
  9 10  4  0  0  0  0
 10 11  4  0  0  0  0
 11 12  4  0  0  0  0
 12 13  4  0  0  0  0
 13 14  4  0  0  0  0
  6 14  4  0  0  0  0
 10 14  4  0  0  0  0
  2 15  1  0  0  0  0
 15 16  1  0  0  0  0
 16 17  1  0  0  0  0
 17 18  1  0  0  0  0
 18 19  1  0  0  0  0
 19 20  1  0  0  0  0
 20 21  1  0  0  0  0
 21 22  1  0  0  0  0
 18 22  1  0  0  0  0
 18 23  1  0  0  0  0
 23 24  1  0  0  0  0
 15 24  1  0  0  0  0
 24 25  1  0  0  0  0
 25 26  1  0  0  0  0
 26 27  1  0  0  0  0
 27 28  1  0  0  0  0
 28 29  1  0  0  0  0
 25 29  1  0  0  0  0
M  END
> <activity>
5.575556759

> <InChiKey>
JMBYBVLCYODBJQ-UHFFFAOYSA-N

$$$$

  Mrv2220 08292413012D          

 12 11  0  0  0  0            999 V2000
    1.2375   -2.1434    0.0000 C   0  0  0  0  0  0  0  0  0  0  0  0
    1.6500   -1.4289    0.0000 C   0  0  0  0  0  0  0  0  0  0  0  0
    2.4750   -1.4289    0.0000 C   0  0  0  0  0  0  0  0  0  0  0  0
    2.8875   -0.7145    0.0000 N   0  0  0  0  0  0  0  0  0  0  0  0
    2.4750    0.0000    0.0000 C   0  0  0  0  0  0  0  0  0  0  0  0
    1.6500   -0.0000    0.0000 C   0  0  0  0  0  0  0  0  0  0  0  0
    1.2375    0.7145    0.0000 C   0  0  0  0  0  0  0  0  0  0  0  0
    3.7125   -0.7145    0.0000 C   0  0  0  0  0  0  0  0  0  0  0  0
    4.1250   -1.4289    0.0000 O   0  0  0  0  0  0  0  0  0  0  0  0
    4.1250    0.0000    0.0000 S   0  0  0  0  0  0  0  0  0  0  0  0
    4.9500    0.0000    0.0000 C   0  0  0  0  0  0  0  0  0  0  0  0
    5.3625    0.7145    0.0000 C   0  0  0  0  0  0  0  0  0  0  0  0
  1  2  1  0  0  0  0
  2  3  1  0  0  0  0
  3  4  1  0  0  0  0
  4  5  1  0  0  0  0
  5  6  1  0  0  0  0
  6  7  1  0  0  0  0
  4  8  1  0  0  0  0
  8  9  2  0  0  0  0
  8 10  1  0  0  0  0
 10 11  1  0  0  0  0
 11 12  1  0  0  0  0
M  END
> <activity>
24.28323896

> <InChiKey>
GUVLYNGULCJVDO-UHFFFAOYSA-N

$$$$

  Mrv2220 08292413012D          

 19 18  0  0  0  0            999 V2000
    5.8263    1.0164    0.0000 C   0  0  0  0  0  0  0  0  0  0  0  0
    5.1118    1.4289    0.0000 C   0  0  0  0  0  0  0  0  0  0  0  0
    4.3974    1.0164    0.0000 O   0  0  0  0  0  0  0  0  0  0  0  0
    3.6829    1.4289    0.0000 P   0  0  0  0  0  0  0  0  0  0  0  0
    4.0954    2.1434    0.0000 S   0  0  0  0  0  0  0  0  0  0  0  0
    3.2704    0.7145    0.0000 O   0  0  0  0  0  0  0  0  0  0  0  0
    2.4454    0.7145    0.0000 C   0  0  0  0  0  0  0  0  0  0  0  0
    2.0329    0.0000    0.0000 C   0  0  0  0  0  0  0  0  0  0  0  0
    2.9684    1.8414    0.0000 S   0  0  0  0  0  0  0  0  0  0  0  0
    2.2539    1.4289    0.0000 C   0  0  0  0  0  0  0  0  0  0  0  0
    1.5395    1.8414    0.0000 S   0  0  0  0  0  0  0  0  0  0  0  0
    0.8250    1.4289    0.0000 P   0  0  0  0  0  0  0  0  0  0  0  0
    0.4125    2.1434    0.0000 S   0  0  0  0  0  0  0  0  0  0  0  0
    0.1105    1.0164    0.0000 O   0  0  0  0  0  0  0  0  0  0  0  0
   -0.6039    1.4289    0.0000 C   0  0  0  0  0  0  0  0  0  0  0  0
   -1.3184    1.0164    0.0000 C   0  0  0  0  0  0  0  0  0  0  0  0
    1.2375    0.7145    0.0000 O   0  0  0  0  0  0  0  0  0  0  0  0
    0.8250    0.0000    0.0000 C   0  0  0  0  0  0  0  0  0  0  0  0
    0.0000    0.0000    0.0000 C   0  0  0  0  0  0  0  0  0  0  0  0
  1  2  1  0  0  0  0
  2  3  1  0  0  0  0
  3  4  1  0  0  0  0
  4  5  2  0  0  0  0
  4  6  1  0  0  0  0
  6  7  1  0  0  0  0
  7  8  1  0  0  0  0
  4  9  1  0  0  0  0
  9 10  1  0  0  0  0
 10 11  1  0  0  0  0
 11 12  1  0  0  0  0
 12 13  2  0  0  0  0
 12 14  1  0  0  0  0
 14 15  1  0  0  0  0
 15 16  1  0  0  0  0
 12 17  1  0  0  0  0
 17 18  1  0  0  0  0
 18 19  1  0  0  0  0
M  END
> <activity>
96.31702473

> <InChiKey>
RIZMRRKBZQXFOY-UHFFFAOYSA-N

$$$$

  Mrv2220 08292413012D          

 13 12  0  0  0  0            999 V2000
    4.9500   -2.8579    0.0000 C   0  0  0  0  0  0  0  0  0  0  0  0
    4.1250   -2.8579    0.0000 C   0  0  0  0  0  0  0  0  0  0  0  0
    3.7125   -2.1434    0.0000 C   0  0  0  0  0  0  0  0  0  0  0  0
    2.8875   -2.1434    0.0000 S   0  0  0  0  0  0  0  0  0  0  0  0
    2.4750   -1.4289    0.0000 P   0  0  0  0  0  0  0  0  0  0  0  0
    3.1895   -1.0164    0.0000 O   0  0  0  0  0  0  0  0  0  0  0  0
    1.7605   -1.8414    0.0000 O   0  0  0  0  0  0  0  0  0  0  0  0
    1.0461   -1.4289    0.0000 C   0  0  0  0  0  0  0  0  0  0  0  0
    0.3316   -1.8414    0.0000 C   0  0  0  0  0  0  0  0  0  0  0  0
    2.0625   -0.7145    0.0000 S   0  0  0  0  0  0  0  0  0  0  0  0
    1.2375   -0.7145    0.0000 C   0  0  0  0  0  0  0  0  0  0  0  0
    0.8250    0.0000    0.0000 C   0  0  0  0  0  0  0  0  0  0  0  0
    0.0000    0.0000    0.0000 C   0  0  0  0  0  0  0  0  0  0  0  0
  1  2  1  0  0  0  0
  2  3  1  0  0  0  0
  3  4  1  0  0  0  0
  4  5  1  0  0  0  0
  5  6  2  0  0  0  0
  5  7  1  0  0  0  0
  7  8  1  0  0  0  0
  8  9  1  0  0  0  0
  5 10  1  0  0  0  0
 10 11  1  0  0  0  0
 11 12  1  0  0  0  0
 12 13  1  0  0  0  0
M  END
> <activity>
24.58492627

> <InChiKey>
VJYFKVYYMZPMAB-UHFFFAOYSA-N

$$$$

  Mrv2220 08292413012D          

 12 12  0  0  0  0            999 V2000
   -0.7145    3.7125    0.0000 C   0  0  0  0  0  0  0  0  0  0  0  0
    0.0000    3.3000    0.0000 C   0  0  0  0  0  0  0  0  0  0  0  0
    0.0000    2.4750    0.0000 O   0  0  0  0  0  0  0  0  0  0  0  0
    0.7145    2.0625    0.0000 C   0  0  0  0  0  0  0  0  0  0  0  0
    1.4289    2.4750    0.0000 O   0  0  0  0  0  0  0  0  0  0  0  0
    0.7145    1.2375    0.0000 C   0  0  0  0  0  0  0  0  0  0  0  0
    1.4289    0.8250    0.0000 C   0  0  0  0  0  0  0  0  0  0  0  0
    1.4289   -0.0000    0.0000 C   0  0  0  0  0  0  0  0  0  0  0  0
    0.7145   -0.4125    0.0000 C   0  0  0  0  0  0  0  0  0  0  0  0
    0.7145   -1.2375    0.0000 C   0  0  0  0  0  0  0  0  0  0  0  0
    0.0000    0.0000    0.0000 C   0  0  0  0  0  0  0  0  0  0  0  0
    0.0000    0.8250    0.0000 C   0  0  0  0  0  0  0  0  0  0  0  0
  1  2  1  0  0  0  0
  2  3  1  0  0  0  0
  3  4  1  0  0  0  0
  4  5  2  0  0  0  0
  4  6  1  0  0  0  0
  6  7  4  0  0  0  0
  7  8  4  0  0  0  0
  8  9  4  0  0  0  0
  9 10  1  0  0  0  0
  9 11  4  0  0  0  0
 11 12  4  0  0  0  0
  6 12  4  0  0  0  0
M  END
> <activity>
6.593028457

> <InChiKey>
NWPWRAWAUYIELB-UHFFFAOYSA-N

$$$$

  Mrv2220 08292413012D          

 22 24  0  0  0  0            999 V2000
    1.8953   -5.1690    0.0000 C   0  0  0  0  0  0  0  0  0  0  0  0
    2.2308   -4.4153    0.0000 C   0  0  0  0  0  0  0  0  0  0  0  0
    1.7459   -3.7479    0.0000 O   0  0  0  0  0  0  0  0  0  0  0  0
    2.0815   -2.9942    0.0000 C   0  0  0  0  0  0  0  0  0  0  0  0
    2.9020   -2.9080    0.0000 O   0  0  0  0  0  0  0  0  0  0  0  0
    1.5966   -2.3268    0.0000 C   0  0  0  0  0  0  0  0  0  0  0  0
    0.7716   -2.3268    0.0000 N   0  0  0  0  0  0  0  0  0  0  0  0
    0.5166   -1.5422    0.0000 O   0  0  0  0  0  0  0  0  0  0  0  0
    1.1841   -1.0572    0.0000 C   0  0  0  0  0  0  0  0  0  0  0  0
    0.6320   -0.4441    0.0000 C   0  0  0  0  0  0  0  0  0  0  0  0
   -0.1749   -0.6157    0.0000 C   0  0  0  0  0  0  0  0  0  0  0  0
   -0.7270   -0.0026    0.0000 C   0  0  0  0  0  0  0  0  0  0  0  0
   -0.4720    0.7820    0.0000 C   0  0  0  0  0  0  0  0  0  0  0  0
    0.3349    0.9536    0.0000 C   0  0  0  0  0  0  0  0  0  0  0  0
    0.8870    0.3405    0.0000 C   0  0  0  0  0  0  0  0  0  0  0  0
    1.7361   -0.4441    0.0000 C   0  0  0  0  0  0  0  0  0  0  0  0
    1.4812    0.3405    0.0000 C   0  0  0  0  0  0  0  0  0  0  0  0
    2.0332    0.9536    0.0000 C   0  0  0  0  0  0  0  0  0  0  0  0
    2.8402    0.7820    0.0000 C   0  0  0  0  0  0  0  0  0  0  0  0
    3.0951   -0.0026    0.0000 C   0  0  0  0  0  0  0  0  0  0  0  0
    2.5431   -0.6157    0.0000 C   0  0  0  0  0  0  0  0  0  0  0  0
    1.8515   -1.5422    0.0000 C   0  0  0  0  0  0  0  0  0  0  0  0
  1  2  1  0  0  0  0
  2  3  1  0  0  0  0
  3  4  1  0  0  0  0
  4  5  2  0  0  0  0
  4  6  1  0  0  0  0
  6  7  2  0  0  0  0
  7  8  1  0  0  0  0
  8  9  1  0  0  0  0
  9 10  1  0  0  0  0
 10 11  4  0  0  0  0
 11 12  4  0  0  0  0
 12 13  4  0  0  0  0
 13 14  4  0  0  0  0
 14 15  4  0  0  0  0
 10 15  4  0  0  0  0
  9 16  1  0  0  0  0
 16 17  4  0  0  0  0
 17 18  4  0  0  0  0
 18 19  4  0  0  0  0
 19 20  4  0  0  0  0
 20 21  4  0  0  0  0
 16 21  4  0  0  0  0
  9 22  1  0  0  0  0
  6 22  1  0  0  0  0
M  END
> <activity>
75.03377386

> <InChiKey>
MWKVXOJATACCCH-UHFFFAOYSA-N

$$$$

  Mrv2220 08292413012D          

  8  7  0  0  0  0            999 V2000
    1.7605    1.8414    0.0000 C   0  0  0  0  0  0  0  0  0  0  0  0
    2.4750    1.4289    0.0000 C   0  0  0  0  0  0  0  0  0  0  0  0
    3.1895    1.8414    0.0000 C   0  0  0  0  0  0  0  0  0  0  0  0
    3.9039    1.4289    0.0000 C   0  0  0  0  0  0  0  0  0  0  0  0
    3.9039    0.6039    0.0000 O   0  0  0  0  0  0  0  0  0  0  0  0
    4.6184    1.8414    0.0000 O   0  0  0  0  0  0  0  0  0  0  0  0
    5.3329    1.4289    0.0000 C   0  0  0  0  0  0  0  0  0  0  0  0
    6.0474    1.8414    0.0000 C   0  0  0  0  0  0  0  0  0  0  0  0
  1  2  1  0  0  0  0
  2  3  1  0  0  0  0
  3  4  1  0  0  0  0
  4  5  2  0  0  0  0
  4  6  1  0  0  0  0
  6  7  1  0  0  0  0
  7  8  1  0  0  0  0
M  END
> <activity>
-0.643918878

> <InChiKey>
OBNCKNCVKJNDBV-UHFFFAOYSA-N

$$$$

  Mrv2220 08292413012D          

 15 16  0  0  0  0            999 V2000
    2.8291   -4.3408    0.0000 C   0  0  0  0  0  0  0  0  0  0  0  0
    2.8291   -3.5158    0.0000 C   0  0  0  0  0  0  0  0  0  0  0  0
    2.1146   -3.1033    0.0000 O   0  0  0  0  0  0  0  0  0  0  0  0
    2.1146   -2.2783    0.0000 C   0  0  0  0  0  0  0  0  0  0  0  0
    2.8291   -1.8658    0.0000 O   0  0  0  0  0  0  0  0  0  0  0  0
    1.4002   -1.8658    0.0000 C   0  0  0  0  0  0  0  0  0  0  0  0
    0.5752   -1.8658    0.0000 O   0  0  0  0  0  0  0  0  0  0  0  0
    0.9877   -1.1514    0.0000 C   0  0  0  0  0  0  0  0  0  0  0  0
    0.5145   -0.4756    0.0000 C   0  0  0  0  0  0  0  0  0  0  0  0
    1.4609   -0.4756    0.0000 C   0  0  0  0  0  0  0  0  0  0  0  0
    1.1122    0.2721    0.0000 C   0  0  0  0  0  0  0  0  0  0  0  0
    1.5854    0.9479    0.0000 C   0  0  0  0  0  0  0  0  0  0  0  0
    2.4073    0.8760    0.0000 C   0  0  0  0  0  0  0  0  0  0  0  0
    2.7559    0.1283    0.0000 C   0  0  0  0  0  0  0  0  0  0  0  0
    2.2827   -0.5475    0.0000 C   0  0  0  0  0  0  0  0  0  0  0  0
  1  2  1  0  0  0  0
  2  3  1  0  0  0  0
  3  4  1  0  0  0  0
  4  5  2  0  0  0  0
  4  6  1  0  0  0  0
  6  7  1  0  0  0  0
  7  8  1  0  0  0  0
  6  8  1  0  0  0  0
  8  9  1  0  0  0  0
  8 10  1  0  0  0  0
 10 11  4  0  0  0  0
 11 12  4  0  0  0  0
 12 13  4  0  0  0  0
 13 14  4  0  0  0  0
 14 15  4  0  0  0  0
 10 15  4  0  0  0  0
M  END
> <activity>
36.90752906

> <InChiKey>
LQKRYVGRPXFFAV-UHFFFAOYSA-N

$$$$

  Mrv2220 08292413012D          

 20 19  0  0  0  0            999 V2000
    5.0627    1.0005    0.0000 O   0  0  0  0  0  0  0  0  0  0  0  0
    5.8729    1.1565    0.0000 C   0  0  0  0  0  0  0  0  0  0  0  0
    6.1429    1.9360    0.0000 O   0  0  0  0  0  0  0  0  0  0  0  0
    6.4129    0.5328    0.0000 C   0  0  0  0  0  0  0  0  0  0  0  0
    6.1429   -0.2467    0.0000 N   0  0  0  0  0  0  0  0  0  0  0  0
    5.3328   -0.4027    0.0000 C   0  0  0  0  0  0  0  0  0  0  0  0
    5.0627   -1.1822    0.0000 C   0  0  0  0  0  0  0  0  0  0  0  0
    4.2526   -1.3381    0.0000 N   0  0  0  0  0  0  0  0  0  0  0  0
    3.9825   -2.1177    0.0000 C   0  0  0  0  0  0  0  0  0  0  0  0
    4.5226   -2.7413    0.0000 C   0  0  0  0  0  0  0  0  0  0  0  0
    5.3328   -2.5854    0.0000 O   0  0  0  0  0  0  0  0  0  0  0  0
    4.2526   -3.5209    0.0000 O   0  0  0  0  0  0  0  0  0  0  0  0
    3.7125   -0.7145    0.0000 C   0  0  0  0  0  0  0  0  0  0  0  0
    2.9024   -0.8704    0.0000 C   0  0  0  0  0  0  0  0  0  0  0  0
    2.3623   -0.2467    0.0000 O   0  0  0  0  0  0  0  0  0  0  0  0
    2.6323   -1.6499    0.0000 O   0  0  0  0  0  0  0  0  0  0  0  0
    6.6830   -0.8704    0.0000 C   0  0  0  0  0  0  0  0  0  0  0  0
    7.4931   -0.7145    0.0000 C   0  0  0  0  0  0  0  0  0  0  0  0
    7.7632    0.0651    0.0000 O   0  0  0  0  0  0  0  0  0  0  0  0
    8.0332   -1.3381    0.0000 O   0  0  0  0  0  0  0  0  0  0  0  0
  1  2  2  0  0  0  0
  2  3  1  0  0  0  0
  2  4  1  0  0  0  0
  4  5  1  0  0  0  0
  5  6  1  0  0  0  0
  6  7  1  0  0  0  0
  7  8  1  0  0  0  0
  8  9  1  0  0  0  0
  9 10  1  0  0  0  0
 10 11  2  0  0  0  0
 10 12  1  0  0  0  0
  8 13  1  0  0  0  0
 13 14  1  0  0  0  0
 14 15  2  0  0  0  0
 14 16  1  0  0  0  0
  5 17  1  0  0  0  0
 17 18  1  0  0  0  0
 18 19  2  0  0  0  0
 18 20  1  0  0  0  0
M  END
> <activity>
9.537897999

> <InChiKey>
KCXVZYZYPLLWCC-UHFFFAOYSA-N

$$$$

  Mrv2220 08292413012D          

 28 31  0  0  0  0            999 V2000
    2.5887   -0.6860    0.0000 C   0  0  0  0  0  0  0  0  0  0  0  0
    2.0367   -1.2991    0.0000 C   0  0  0  0  0  0  0  0  0  0  0  0
    1.4847   -0.6860    0.0000 C   0  0  0  0  0  0  0  0  0  0  0  0
    0.6777   -0.8575    0.0000 C   0  0  0  0  0  0  0  0  0  0  0  0
    0.1257   -0.2444    0.0000 C   0  0  0  0  0  0  0  0  0  0  0  0
    0.3806    0.5402    0.0000 C   0  0  0  0  0  0  0  0  0  0  0  0
   -0.1714    1.1533    0.0000 O   0  0  0  0  0  0  0  0  0  0  0  0
    0.0835    1.9379    0.0000 C   0  0  0  0  0  0  0  0  0  0  0  0
   -0.4685    2.5510    0.0000 C   0  0  0  0  0  0  0  0  0  0  0  0
   -0.2136    3.3356    0.0000 C   0  0  0  0  0  0  0  0  0  0  0  0
    0.5934    3.5071    0.0000 C   0  0  0  0  0  0  0  0  0  0  0  0
    1.1454    2.8940    0.0000 C   0  0  0  0  0  0  0  0  0  0  0  0
    0.8905    2.1094    0.0000 C   0  0  0  0  0  0  0  0  0  0  0  0
    1.1876    0.7117    0.0000 C   0  0  0  0  0  0  0  0  0  0  0  0
    1.7396    0.0986    0.0000 C   0  0  0  0  0  0  0  0  0  0  0  0
    2.7041   -1.7840    0.0000 O   0  0  0  0  0  0  0  0  0  0  0  0
    2.4492   -2.5687    0.0000 C   0  0  0  0  0  0  0  0  0  0  0  0
    2.9341   -3.2361    0.0000 O   0  0  0  0  0  0  0  0  0  0  0  0
    1.6242   -2.5687    0.0000 N   0  0  0  0  0  0  0  0  0  0  0  0
    1.1393   -3.2361    0.0000 N   0  0  0  0  0  0  0  0  0  0  0  0
    0.3188   -3.1499    0.0000 C   0  0  0  0  0  0  0  0  0  0  0  0
   -0.1661   -3.8173    0.0000 C   0  0  0  0  0  0  0  0  0  0  0  0
   -0.9866   -3.7311    0.0000 C   0  0  0  0  0  0  0  0  0  0  0  0
   -1.3222   -2.9774    0.0000 C   0  0  0  0  0  0  0  0  0  0  0  0
   -0.8372   -2.3099    0.0000 C   0  0  0  0  0  0  0  0  0  0  0  0
   -0.0168   -2.3962    0.0000 C   0  0  0  0  0  0  0  0  0  0  0  0
    1.3693   -1.7840    0.0000 C   0  0  0  0  0  0  0  0  0  0  0  0
    0.5846   -1.5291    0.0000 O   0  0  0  0  0  0  0  0  0  0  0  0
  1  2  1  0  0  0  0
  2  3  1  0  0  0  0
  3  4  4  0  0  0  0
  4  5  4  0  0  0  0
  5  6  4  0  0  0  0
  6  7  1  0  0  0  0
  7  8  1  0  0  0  0
  8  9  4  0  0  0  0
  9 10  4  0  0  0  0
 10 11  4  0  0  0  0
 11 12  4  0  0  0  0
 12 13  4  0  0  0  0
  8 13  4  0  0  0  0
  6 14  4  0  0  0  0
 14 15  4  0  0  0  0
  3 15  4  0  0  0  0
  2 16  1  0  0  0  0
 16 17  1  0  0  0  0
 17 18  2  0  0  0  0
 17 19  1  0  0  0  0
 19 20  1  0  0  0  0
 20 21  1  0  0  0  0
 21 22  4  0  0  0  0
 22 23  4  0  0  0  0
 23 24  4  0  0  0  0
 24 25  4  0  0  0  0
 25 26  4  0  0  0  0
 21 26  4  0  0  0  0
 19 27  1  0  0  0  0
  2 27  1  0  0  0  0
 27 28  2  0  0  0  0
M  END
> <activity>
66.56265898

> <InChiKey>
PCCSBWNGDMYFCW-UHFFFAOYSA-N

$$$$

  Mrv2220 08292413012D          

 26 28  0  0  0  0            999 V2000
    2.6041   -2.0750    0.0000 C   0  0  0  0  0  0  0  0  0  0  0  0
    2.7474   -2.8875    0.0000 C   0  0  0  0  0  0  0  0  0  0  0  0
    1.9721   -3.1697    0.0000 C   0  0  0  0  0  0  0  0  0  0  0  0
    3.5724   -2.8875    0.0000 C   0  0  0  0  0  0  0  0  0  0  0  0
    4.2868   -2.4750    0.0000 C   0  0  0  0  0  0  0  0  0  0  0  0
    5.0013   -2.8875    0.0000 O   0  0  0  0  0  0  0  0  0  0  0  0
    4.2868   -1.6500    0.0000 O   0  0  0  0  0  0  0  0  0  0  0  0
    5.0013   -1.2375    0.0000 C   0  0  0  0  0  0  0  0  0  0  0  0
    5.7158   -1.6500    0.0000 C   0  0  0  0  0  0  0  0  0  0  0  0
    6.4302   -2.0625    0.0000 N   0  0  0  0  0  0  0  0  0  0  0  0
    5.0013   -0.4125    0.0000 C   0  0  0  0  0  0  0  0  0  0  0  0
    4.2868    0.0000    0.0000 C   0  0  0  0  0  0  0  0  0  0  0  0
    4.2868    0.8250    0.0000 C   0  0  0  0  0  0  0  0  0  0  0  0
    5.0013    1.2375    0.0000 C   0  0  0  0  0  0  0  0  0  0  0  0
    5.7158    0.8250    0.0000 C   0  0  0  0  0  0  0  0  0  0  0  0
    6.4302    1.2375    0.0000 O   0  0  0  0  0  0  0  0  0  0  0  0
    7.1447    0.8250    0.0000 C   0  0  0  0  0  0  0  0  0  0  0  0
    7.8592    1.2375    0.0000 C   0  0  0  0  0  0  0  0  0  0  0  0
    8.5737    0.8250    0.0000 C   0  0  0  0  0  0  0  0  0  0  0  0
    8.5737    0.0000    0.0000 C   0  0  0  0  0  0  0  0  0  0  0  0
    7.8592   -0.4125    0.0000 C   0  0  0  0  0  0  0  0  0  0  0  0
    7.1447    0.0000    0.0000 C   0  0  0  0  0  0  0  0  0  0  0  0
    5.7158    0.0000    0.0000 C   0  0  0  0  0  0  0  0  0  0  0  0
    3.1599   -3.6020    0.0000 C   0  0  0  0  0  0  0  0  0  0  0  0
    3.6331   -4.2778    0.0000 C   0  0  0  0  0  0  0  0  0  0  0  0
    2.6867   -4.2778    0.0000 C   0  0  0  0  0  0  0  0  0  0  0  0
  1  2  1  0  0  0  0
  2  3  1  0  0  0  0
  2  4  1  0  0  0  0
  4  5  1  0  0  0  0
  5  6  2  0  0  0  0
  5  7  1  0  0  0  0
  7  8  1  0  0  0  0
  8  9  1  0  0  0  0
  9 10  3  0  0  0  0
  8 11  1  0  0  0  0
 11 12  4  0  0  0  0
 12 13  4  0  0  0  0
 13 14  4  0  0  0  0
 14 15  4  0  0  0  0
 15 16  1  0  0  0  0
 16 17  1  0  0  0  0
 17 18  4  0  0  0  0
 18 19  4  0  0  0  0
 19 20  4  0  0  0  0
 20 21  4  0  0  0  0
 21 22  4  0  0  0  0
 17 22  4  0  0  0  0
 15 23  4  0  0  0  0
 11 23  4  0  0  0  0
  4 24  1  0  0  0  0
  2 24  1  0  0  0  0
 24 25  1  0  0  0  0
 24 26  1  0  0  0  0
M  END
> <activity>
61.22151526

> <InChiKey>
XQUXKZZNEFRCAW-UHFFFAOYSA-N

$$$$

  Mrv2220 08292413012D          

 31 33  0  0  0  0            999 V2000
    0.7145   -2.8875    0.0000 C   0  0  0  0  0  0  0  0  0  0  0  0
    0.7145   -3.7125    0.0000 C   0  0  0  0  0  0  0  0  0  0  0  0
    1.3819   -4.1974    0.0000 N   0  0  0  0  0  0  0  0  0  0  0  0
    1.1270   -4.9820    0.0000 N   0  0  0  0  0  0  0  0  0  0  0  0
    1.6119   -5.6495    0.0000 C   0  0  0  0  0  0  0  0  0  0  0  0
    0.3020   -4.9820    0.0000 C   0  0  0  0  0  0  0  0  0  0  0  0
   -0.1830   -5.6495    0.0000 O   0  0  0  0  0  0  0  0  0  0  0  0
    0.1526   -6.4032    0.0000 C   0  0  0  0  0  0  0  0  0  0  0  0
    0.9731   -6.4894    0.0000 C   0  0  0  0  0  0  0  0  0  0  0  0
    1.3086   -7.2431    0.0000 C   0  0  0  0  0  0  0  0  0  0  0  0
    0.8237   -7.9105    0.0000 C   0  0  0  0  0  0  0  0  0  0  0  0
    0.0032   -7.8243    0.0000 C   0  0  0  0  0  0  0  0  0  0  0  0
   -0.3323   -7.0706    0.0000 C   0  0  0  0  0  0  0  0  0  0  0  0
    0.0470   -4.1974    0.0000 C   0  0  0  0  0  0  0  0  0  0  0  0
   -0.7376   -3.9425    0.0000 C   0  0  0  0  0  0  0  0  0  0  0  0
   -0.9091   -3.1355    0.0000 N   0  0  0  0  0  0  0  0  0  0  0  0
   -1.6937   -2.8806    0.0000 O   0  0  0  0  0  0  0  0  0  0  0  0
   -2.3068   -3.4326    0.0000 C   0  0  0  0  0  0  0  0  0  0  0  0
   -3.0915   -3.1777    0.0000 C   0  0  0  0  0  0  0  0  0  0  0  0
   -3.7045   -3.7297    0.0000 C   0  0  0  0  0  0  0  0  0  0  0  0
   -4.4892   -3.4748    0.0000 C   0  0  0  0  0  0  0  0  0  0  0  0
   -4.6607   -2.6678    0.0000 C   0  0  0  0  0  0  0  0  0  0  0  0
   -5.4453   -2.4128    0.0000 C   0  0  0  0  0  0  0  0  0  0  0  0
   -6.0584   -2.9649    0.0000 O   0  0  0  0  0  0  0  0  0  0  0  0
   -5.6168   -1.6059    0.0000 O   0  0  0  0  0  0  0  0  0  0  0  0
   -6.4015   -1.3509    0.0000 C   0  0  0  0  0  0  0  0  0  0  0  0
   -7.1861   -1.0960    0.0000 C   0  0  0  0  0  0  0  0  0  0  0  0
   -6.1465   -0.5663    0.0000 C   0  0  0  0  0  0  0  0  0  0  0  0
   -6.6564   -2.1356    0.0000 C   0  0  0  0  0  0  0  0  0  0  0  0
   -4.0476   -2.1158    0.0000 C   0  0  0  0  0  0  0  0  0  0  0  0
   -3.2630   -2.3707    0.0000 C   0  0  0  0  0  0  0  0  0  0  0  0
  1  2  1  0  0  0  0
  2  3  4  0  0  0  0
  3  4  4  0  0  0  0
  4  5  1  0  0  0  0
  4  6  4  0  0  0  0
  6  7  1  0  0  0  0
  7  8  1  0  0  0  0
  8  9  4  0  0  0  0
  9 10  4  0  0  0  0
 10 11  4  0  0  0  0
 11 12  4  0  0  0  0
 12 13  4  0  0  0  0
  8 13  4  0  0  0  0
  6 14  4  0  0  0  0
  2 14  4  0  0  0  0
 15 14  1  4  0  0  0
 15 16  2  0  0  0  0
 16 17  1  0  0  0  0
 17 18  1  0  0  0  0
 18 19  1  0  0  0  0
 19 20  4  0  0  0  0
 20 21  4  0  0  0  0
 21 22  4  0  0  0  0
 22 23  1  0  0  0  0
 23 24  2  0  0  0  0
 23 25  1  0  0  0  0
 25 26  1  0  0  0  0
 26 27  1  0  0  0  0
 26 28  1  0  0  0  0
 26 29  1  0  0  0  0
 22 30  4  0  0  0  0
 30 31  4  0  0  0  0
 19 31  4  0  0  0  0
M  END
> <activity>
26.57892215

> <InChiKey>
YYJNOYZRYGDPNH-UHFFFAOYSA-N

$$$$

  Mrv2220 08292413012D          

 26 27  0  0  0  0            999 V2000
   -0.7145   -2.0625    0.0000 C   0  0  0  0  0  0  0  0  0  0  0  0
    0.0000   -2.4750    0.0000 O   0  0  0  0  0  0  0  0  0  0  0  0
    0.0000   -3.3000    0.0000 C   0  0  0  0  0  0  0  0  0  0  0  0
    0.6674   -3.7849    0.0000 N   0  0  0  0  0  0  0  0  0  0  0  0
    0.4125   -4.5695    0.0000 N   0  0  0  0  0  0  0  0  0  0  0  0
    0.8974   -5.2370    0.0000 C   0  0  0  0  0  0  0  0  0  0  0  0
    1.7179   -5.1507    0.0000 O   0  0  0  0  0  0  0  0  0  0  0  0
    0.5619   -5.9907    0.0000 N   0  0  0  0  0  0  0  0  0  0  0  0
    1.0468   -6.6581    0.0000 S   0  0  0  0  0  0  0  0  0  0  0  0
    0.3793   -7.1430    0.0000 O   0  0  0  0  0  0  0  0  0  0  0  0
    1.7142   -6.1732    0.0000 O   0  0  0  0  0  0  0  0  0  0  0  0
    1.5317   -7.3255    0.0000 C   0  0  0  0  0  0  0  0  0  0  0  0
    2.3522   -7.2393    0.0000 C   0  0  0  0  0  0  0  0  0  0  0  0
    2.8371   -7.9067    0.0000 C   0  0  0  0  0  0  0  0  0  0  0  0
    2.5016   -8.6604    0.0000 C   0  0  0  0  0  0  0  0  0  0  0  0
    1.6811   -8.7467    0.0000 C   0  0  0  0  0  0  0  0  0  0  0  0
    1.1962   -8.0792    0.0000 C   0  0  0  0  0  0  0  0  0  0  0  0
    0.3757   -8.1654    0.0000 O   0  0  0  0  0  0  0  0  0  0  0  0
    0.0401   -8.9191    0.0000 C   0  0  0  0  0  0  0  0  0  0  0  0
   -0.2954   -9.6728    0.0000 F   0  0  0  0  0  0  0  0  0  0  0  0
   -0.7136   -8.5836    0.0000 F   0  0  0  0  0  0  0  0  0  0  0  0
    0.7938   -9.2547    0.0000 F   0  0  0  0  0  0  0  0  0  0  0  0
   -0.4125   -4.5695    0.0000 C   0  0  0  0  0  0  0  0  0  0  0  0
   -0.8974   -5.2370    0.0000 O   0  0  0  0  0  0  0  0  0  0  0  0
   -0.6674   -3.7849    0.0000 N   0  0  0  0  0  0  0  0  0  0  0  0
   -1.4521   -3.5300    0.0000 C   0  0  0  0  0  0  0  0  0  0  0  0
  1  2  1  0  0  0  0
  2  3  1  0  0  0  0
  3  4  4  0  0  0  0
  4  5  4  0  0  0  0
  5  6  1  0  0  0  0
  6  7  2  0  0  0  0
  6  8  1  0  0  0  0
  8  9  1  0  0  0  0
  9 10  2  0  0  0  0
  9 11  2  0  0  0  0
  9 12  1  0  0  0  0
 12 13  4  0  0  0  0
 13 14  4  0  0  0  0
 14 15  4  0  0  0  0
 15 16  4  0  0  0  0
 16 17  4  0  0  0  0
 12 17  4  0  0  0  0
 17 18  1  0  0  0  0
 18 19  1  0  0  0  0
 19 20  1  0  0  0  0
 19 21  1  0  0  0  0
 19 22  1  0  0  0  0
  5 23  4  0  0  0  0
 23 24  2  0  0  0  0
 23 25  4  0  0  0  0
  3 25  4  0  0  0  0
 25 26  1  0  0  0  0
M  END
> <activity>
90.00580897

> <InChiKey>
GINFBXXYGUODAT-UHFFFAOYSA-N

$$$$

  Mrv2220 08292413012D          

 16 16  0  0  0  0            999 V2000
    2.1434    3.7125    0.0000 C   0  0  0  0  0  0  0  0  0  0  0  0
    1.4289    3.3000    0.0000 N   0  0  0  0  0  0  0  0  0  0  0  0
    1.4289    2.4750    0.0000 C   0  0  0  0  0  0  0  0  0  0  0  0
    2.1434    2.0625    0.0000 O   0  0  0  0  0  0  0  0  0  0  0  0
    0.7145    2.0625    0.0000 O   0  0  0  0  0  0  0  0  0  0  0  0
    0.7145    1.2375    0.0000 C   0  0  0  0  0  0  0  0  0  0  0  0
    1.4289    0.8250    0.0000 C   0  0  0  0  0  0  0  0  0  0  0  0
    1.4289   -0.0000    0.0000 C   0  0  0  0  0  0  0  0  0  0  0  0
    0.7145   -0.4125    0.0000 C   0  0  0  0  0  0  0  0  0  0  0  0
    0.0000    0.0000    0.0000 C   0  0  0  0  0  0  0  0  0  0  0  0
   -0.7145   -0.4125    0.0000 N   0  0  0  0  0  0  0  0  0  0  0  0
   -1.4289    0.0000    0.0000 C   0  0  0  0  0  0  0  0  0  0  0  0
   -2.1434   -0.4125    0.0000 N   0  0  0  0  0  0  0  0  0  0  0  0
   -2.1434   -1.2375    0.0000 C   0  0  0  0  0  0  0  0  0  0  0  0
   -2.8579    0.0000    0.0000 C   0  0  0  0  0  0  0  0  0  0  0  0
    0.0000    0.8250    0.0000 C   0  0  0  0  0  0  0  0  0  0  0  0
  1  2  1  0  0  0  0
  2  3  1  0  0  0  0
  3  4  2  0  0  0  0
  3  5  1  0  0  0  0
  5  6  1  0  0  0  0
  6  7  4  0  0  0  0
  7  8  4  0  0  0  0
  8  9  4  0  0  0  0
  9 10  4  0  0  0  0
 11 10  1  4  0  0  0
 11 12  2  0  0  0  0
 12 13  1  0  0  0  0
 13 14  1  0  0  0  0
 13 15  1  0  0  0  0
 10 16  4  0  0  0  0
  6 16  4  0  0  0  0
M  END
> <activity>
13.87244071

> <InChiKey>
RMFNNCGOSPBBAD-UHFFFAOYSA-N

$$$$

  Mrv2220 08292413012D          

  7  6  0  0  0  0            999 V2000
    1.7605    1.8414    0.0000 O   0  0  0  0  0  0  0  0  0  0  0  0
    2.4750    1.4289    0.0000 C   0  0  0  0  0  0  0  0  0  0  0  0
    3.1895    1.8414    0.0000 C   0  0  0  0  0  0  0  0  0  0  0  0
    3.9039    1.4289    0.0000 C   0  0  0  0  0  0  0  0  0  0  0  0
    4.6184    1.8414    0.0000 C   0  0  0  0  0  0  0  0  0  0  0  0
    5.3329    1.4289    0.0000 C   0  0  0  0  0  0  0  0  0  0  0  0
    6.0474    1.8414    0.0000 O   0  0  0  0  0  0  0  0  0  0  0  0
  1  2  2  0  0  0  0
  2  3  1  0  0  0  0
  3  4  1  0  0  0  0
  4  5  1  0  0  0  0
  5  6  1  0  0  0  0
  6  7  2  0  0  0  0
M  END
> <activity>
0.307490223

> <InChiKey>
SXRSQZLOMIGNAQ-UHFFFAOYSA-N

$$$$

  Mrv2220 08292413012D          

  9  8  0  0  0  0            999 V2000
   -0.6039   -1.6500    0.0000 C   0  0  0  0  0  0  0  0  0  0  0  0
    0.1105   -1.2375    0.0000 Si  0  0  0  0  0  0  0  0  0  0  0  0
    0.5230   -1.9520    0.0000 C   0  0  0  0  0  0  0  0  0  0  0  0
   -0.3020   -0.5230    0.0000 C   0  0  0  0  0  0  0  0  0  0  0  0
    0.8250   -0.8250    0.0000 N   0  0  0  0  0  0  0  0  0  0  0  0
    0.8250    0.0000    0.0000 Si  0  0  0  0  0  0  0  0  0  0  0  0
    0.8250    0.8250    0.0000 C   0  0  0  0  0  0  0  0  0  0  0  0
    1.6500   -0.0000    0.0000 C   0  0  0  0  0  0  0  0  0  0  0  0
    0.0000    0.0000    0.0000 C   0  0  0  0  0  0  0  0  0  0  0  0
  1  2  1  0  0  0  0
  2  3  1  0  0  0  0
  2  4  1  0  0  0  0
  2  5  1  0  0  0  0
  5  6  1  0  0  0  0
  6  7  1  0  0  0  0
  6  8  1  0  0  0  0
  6  9  1  0  0  0  0
M  END
> <activity>
5.376452754

> <InChiKey>
FFUAGWLWBBFQJT-UHFFFAOYSA-N

$$$$

  Mrv2220 08292413012D          

 19 20  0  0  0  0            999 V2000
    1.7309   -2.1730    0.0000 C   0  0  0  0  0  0  0  0  0  0  0  0
    2.1434   -2.8875    0.0000 C   0  0  0  0  0  0  0  0  0  0  0  0
    2.9684   -2.8875    0.0000 C   0  0  0  0  0  0  0  0  0  0  0  0
    3.3809   -3.6020    0.0000 O   0  0  0  0  0  0  0  0  0  0  0  0
    4.2059   -3.6020    0.0000 C   0  0  0  0  0  0  0  0  0  0  0  0
    4.6184   -2.8875    0.0000 C   0  0  0  0  0  0  0  0  0  0  0  0
    5.4434   -2.8875    0.0000 N   0  0  0  0  0  0  0  0  0  0  0  0
    5.9283   -2.2201    0.0000 C   0  0  0  0  0  0  0  0  0  0  0  0
    6.7130   -2.4750    0.0000 C   0  0  0  0  0  0  0  0  0  0  0  0
    6.7130   -3.3000    0.0000 N   0  0  0  0  0  0  0  0  0  0  0  0
    5.9283   -3.5549    0.0000 C   0  0  0  0  0  0  0  0  0  0  0  0
    4.6184   -4.3164    0.0000 C   0  0  0  0  0  0  0  0  0  0  0  0
    5.4434   -4.3164    0.0000 C   0  0  0  0  0  0  0  0  0  0  0  0
    5.8559   -5.0309    0.0000 C   0  0  0  0  0  0  0  0  0  0  0  0
    5.4434   -5.7454    0.0000 C   0  0  0  0  0  0  0  0  0  0  0  0
    5.8559   -6.4599    0.0000 Cl  0  0  0  0  0  0  0  0  0  0  0  0
    4.6184   -5.7454    0.0000 C   0  0  0  0  0  0  0  0  0  0  0  0
    4.2059   -5.0309    0.0000 C   0  0  0  0  0  0  0  0  0  0  0  0
    3.3809   -5.0309    0.0000 Cl  0  0  0  0  0  0  0  0  0  0  0  0
  1  2  2  0  0  0  0
  2  3  1  0  0  0  0
  3  4  1  0  0  0  0
  4  5  1  0  0  0  0
  5  6  1  0  0  0  0
  6  7  1  0  0  0  0
  7  8  4  0  0  0  0
  8  9  4  0  0  0  0
  9 10  4  0  0  0  0
 10 11  4  0  0  0  0
  7 11  4  0  0  0  0
  5 12  1  0  0  0  0
 12 13  4  0  0  0  0
 13 14  4  0  0  0  0
 14 15  4  0  0  0  0
 15 16  1  0  0  0  0
 15 17  4  0  0  0  0
 17 18  4  0  0  0  0
 12 18  4  0  0  0  0
 18 19  1  0  0  0  0
M  END
> <activity>
40.52732361

> <InChiKey>
PZBPKYOVPCNPJY-UHFFFAOYSA-N

$$$$

  Mrv2220 08292413012D          

 22 23  0  0  0  0            999 V2000
   -1.7871   -1.8943    0.0000 C   0  0  0  0  0  0  0  0  0  0  0  0
   -1.3022   -1.2269    0.0000 O   0  0  0  0  0  0  0  0  0  0  0  0
   -1.6377   -0.4732    0.0000 C   0  0  0  0  0  0  0  0  0  0  0  0
   -1.1528    0.1942    0.0000 C   0  0  0  0  0  0  0  0  0  0  0  0
   -1.4884    0.9479    0.0000 C   0  0  0  0  0  0  0  0  0  0  0  0
   -1.0034    1.6153    0.0000 N   0  0  0  0  0  0  0  0  0  0  0  0
   -0.1830    1.5291    0.0000 C   0  0  0  0  0  0  0  0  0  0  0  0
    0.3020    2.1965    0.0000 C   0  0  0  0  0  0  0  0  0  0  0  0
    0.0470    2.9812    0.0000 N   0  0  0  0  0  0  0  0  0  0  0  0
    0.7145    3.4661    0.0000 C   0  0  0  0  0  0  0  0  0  0  0  0
    0.1624    4.0792    0.0000 C   0  0  0  0  0  0  0  0  0  0  0  0
    1.2665    4.0792    0.0000 C   0  0  0  0  0  0  0  0  0  0  0  0
    1.0116    4.8638    0.0000 C   0  0  0  0  0  0  0  0  0  0  0  0
    2.0735    3.9076    0.0000 C   0  0  0  0  0  0  0  0  0  0  0  0
    1.3819    2.9812    0.0000 C   0  0  0  0  0  0  0  0  0  0  0  0
    2.1665    3.2361    0.0000 O   0  0  0  0  0  0  0  0  0  0  0  0
    1.1270    2.1965    0.0000 N   0  0  0  0  0  0  0  0  0  0  0  0
    0.1526    0.7754    0.0000 C   0  0  0  0  0  0  0  0  0  0  0  0
    0.9731    0.6892    0.0000 C   0  0  0  0  0  0  0  0  0  0  0  0
    1.3086   -0.0645    0.0000 O   0  0  0  0  0  0  0  0  0  0  0  0
    1.4580    1.3566    0.0000 O   0  0  0  0  0  0  0  0  0  0  0  0
   -0.3323    0.1080    0.0000 C   0  0  0  0  0  0  0  0  0  0  0  0
  1  2  1  0  0  0  0
  2  3  1  0  0  0  0
  3  4  1  0  0  0  0
  4  5  4  0  0  0  0
  5  6  4  0  0  0  0
  6  7  4  0  0  0  0
  7  8  1  0  0  0  0
  8  9  2  0  0  0  0
  9 10  1  0  0  0  0
 10 11  1  0  0  0  0
 10 12  1  0  0  0  0
 12 13  1  0  0  0  0
 12 14  1  0  0  0  0
 10 15  1  0  0  0  0
 15 16  2  0  0  0  0
 15 17  1  0  0  0  0
  8 17  1  0  0  0  0
  7 18  4  0  0  0  0
 18 19  1  0  0  0  0
 19 20  2  0  0  0  0
 19 21  1  0  0  0  0
 18 22  4  0  0  0  0
  4 22  4  0  0  0  0
M  END
> <activity>
4.781540142

> <InChiKey>
NUPJIGQFXCQJBK-UHFFFAOYSA-N

$$$$

  Mrv2220 08292413012D          

 23 25  0  0  0  0            999 V2000
    1.0158   -0.7221    0.0000 C   0  0  0  0  0  0  0  0  0  0  0  0
    0.8443   -1.5291    0.0000 C   0  0  0  0  0  0  0  0  0  0  0  0
    1.4574   -2.0811    0.0000 C   0  0  0  0  0  0  0  0  0  0  0  0
    0.0597   -1.7840    0.0000 C   0  0  0  0  0  0  0  0  0  0  0  0
   -0.1953   -2.5687    0.0000 C   0  0  0  0  0  0  0  0  0  0  0  0
   -1.0203   -2.5687    0.0000 C   0  0  0  0  0  0  0  0  0  0  0  0
   -1.2752   -1.7840    0.0000 C   0  0  0  0  0  0  0  0  0  0  0  0
   -2.0598   -1.5291    0.0000 C   0  0  0  0  0  0  0  0  0  0  0  0
   -2.6729   -2.0811    0.0000 C   0  0  0  0  0  0  0  0  0  0  0  0
   -2.5014   -2.8881    0.0000 C   0  0  0  0  0  0  0  0  0  0  0  0
   -3.1145   -3.4401    0.0000 C   0  0  0  0  0  0  0  0  0  0  0  0
   -3.8991   -3.1852    0.0000 C   0  0  0  0  0  0  0  0  0  0  0  0
   -4.5122   -3.7372    0.0000 Cl  0  0  0  0  0  0  0  0  0  0  0  0
   -4.0706   -2.3782    0.0000 C   0  0  0  0  0  0  0  0  0  0  0  0
   -3.4575   -1.8262    0.0000 C   0  0  0  0  0  0  0  0  0  0  0  0
   -0.6078   -1.2991    0.0000 C   0  0  0  0  0  0  0  0  0  0  0  0
   -1.0128   -0.5804    0.0000 O   0  0  0  0  0  0  0  0  0  0  0  0
   -0.2028   -0.5804    0.0000 C   0  0  0  0  0  0  0  0  0  0  0  0
   -0.6227    0.1298    0.0000 N   0  0  0  0  0  0  0  0  0  0  0  0
   -0.2951    0.8869    0.0000 C   0  0  0  0  0  0  0  0  0  0  0  0
   -0.9139    1.4325    0.0000 N   0  0  0  0  0  0  0  0  0  0  0  0
   -1.6240    1.0125    0.0000 C   0  0  0  0  0  0  0  0  0  0  0  0
   -1.4441    0.2074    0.0000 N   0  0  0  0  0  0  0  0  0  0  0  0
  1  2  1  0  0  0  0
  2  3  1  0  0  0  0
  2  4  1  0  0  0  0
  4  5  1  0  0  0  0
  5  6  1  0  0  0  0
  6  7  1  0  0  0  0
  7  8  1  0  0  0  0
  8  9  1  0  0  0  0
  9 10  4  0  0  0  0
 10 11  4  0  0  0  0
 11 12  4  0  0  0  0
 12 13  1  0  0  0  0
 12 14  4  0  0  0  0
 14 15  4  0  0  0  0
  9 15  4  0  0  0  0
  7 16  1  0  0  0  0
  4 16  1  0  0  0  0
 16 17  1  0  0  0  0
 16 18  1  0  0  0  0
 18 19  1  0  0  0  0
 19 20  4  0  0  0  0
 20 21  4  0  0  0  0
 21 22  4  0  0  0  0
 22 23  4  0  0  0  0
 19 23  4  0  0  0  0
M  END
> <activity>
-20.94502348

> <InChiKey>
QTYCMDBMOLSEAM-UHFFFAOYSA-N

$$$$

  Mrv2220 08292413012D          

 21 22  0  0  0  0            999 V2000
    2.1434    1.2375    0.0000 C   0  0  0  0  0  0  0  0  0  0  0  0
    1.4289    0.8250    0.0000 C   0  0  0  0  0  0  0  0  0  0  0  0
    0.7145    1.2375    0.0000 C   0  0  0  0  0  0  0  0  0  0  0  0
    1.4289   -0.0000    0.0000 N   0  0  0  0  0  0  0  0  0  0  0  0
    0.7145   -0.4125    0.0000 C   0  0  0  0  0  0  0  0  0  0  0  0
    0.0000    0.0000    0.0000 O   0  0  0  0  0  0  0  0  0  0  0  0
    0.7145   -1.2375    0.0000 N   0  0  0  0  0  0  0  0  0  0  0  0
    1.3819   -1.7224    0.0000 C   0  0  0  0  0  0  0  0  0  0  0  0
    1.1270   -2.5070    0.0000 C   0  0  0  0  0  0  0  0  0  0  0  0
    1.6119   -3.1745    0.0000 O   0  0  0  0  0  0  0  0  0  0  0  0
    0.3020   -2.5070    0.0000 N   0  0  0  0  0  0  0  0  0  0  0  0
   -0.1830   -3.1745    0.0000 C   0  0  0  0  0  0  0  0  0  0  0  0
    0.1526   -3.9282    0.0000 C   0  0  0  0  0  0  0  0  0  0  0  0
   -0.3323   -4.5956    0.0000 C   0  0  0  0  0  0  0  0  0  0  0  0
    0.0032   -5.3493    0.0000 Cl  0  0  0  0  0  0  0  0  0  0  0  0
   -1.1528   -4.5094    0.0000 C   0  0  0  0  0  0  0  0  0  0  0  0
   -1.4884   -3.7557    0.0000 C   0  0  0  0  0  0  0  0  0  0  0  0
   -2.3088   -3.6695    0.0000 Cl  0  0  0  0  0  0  0  0  0  0  0  0
   -1.0034   -3.0882    0.0000 C   0  0  0  0  0  0  0  0  0  0  0  0
    0.0470   -1.7224    0.0000 C   0  0  0  0  0  0  0  0  0  0  0  0
   -0.7376   -1.4675    0.0000 O   0  0  0  0  0  0  0  0  0  0  0  0
  1  2  1  0  0  0  0
  2  3  1  0  0  0  0
  2  4  1  0  0  0  0
  4  5  1  0  0  0  0
  5  6  2  0  0  0  0
  5  7  1  0  0  0  0
  7  8  1  0  0  0  0
  8  9  1  0  0  0  0
  9 10  2  0  0  0  0
  9 11  1  0  0  0  0
 11 12  1  0  0  0  0
 12 13  4  0  0  0  0
 13 14  4  0  0  0  0
 14 15  1  0  0  0  0
 14 16  4  0  0  0  0
 16 17  4  0  0  0  0
 17 18  1  0  0  0  0
 17 19  4  0  0  0  0
 12 19  4  0  0  0  0
 11 20  1  0  0  0  0
  7 20  1  0  0  0  0
 20 21  2  0  0  0  0
M  END
> <activity>
99.24209985

> <InChiKey>
ONUFESLQCSAYKA-UHFFFAOYSA-N

$$$$

  Mrv2220 08292413012D          

 14 14  0  0  0  0            999 V2000
    1.4289   -4.1250    0.0000 C   0  0  0  0  0  0  0  0  0  0  0  0
    2.1434   -3.7125    0.0000 C   0  0  0  0  0  0  0  0  0  0  0  0
    2.1434   -2.8875    0.0000 C   0  0  0  0  0  0  0  0  0  0  0  0
    2.8579   -4.1250    0.0000 C   0  0  0  0  0  0  0  0  0  0  0  0
    3.5724   -3.7125    0.0000 C   0  0  0  0  0  0  0  0  0  0  0  0
    4.2868   -4.1250    0.0000 O   0  0  0  0  0  0  0  0  0  0  0  0
    5.0013   -3.7125    0.0000 C   0  0  0  0  0  0  0  0  0  0  0  0
    5.0013   -2.8875    0.0000 O   0  0  0  0  0  0  0  0  0  0  0  0
    5.7158   -4.1250    0.0000 C   0  0  0  0  0  0  0  0  0  0  0  0
    6.4302   -3.7125    0.0000 C   0  0  0  0  0  0  0  0  0  0  0  0
    7.1447   -4.1250    0.0000 C   0  0  0  0  0  0  0  0  0  0  0  0
    7.1447   -4.9500    0.0000 C   0  0  0  0  0  0  0  0  0  0  0  0
    6.4302   -5.3625    0.0000 C   0  0  0  0  0  0  0  0  0  0  0  0
    5.7158   -4.9500    0.0000 C   0  0  0  0  0  0  0  0  0  0  0  0
  1  2  1  0  0  0  0
  2  3  1  0  0  0  0
  2  4  1  0  0  0  0
  4  5  1  0  0  0  0
  5  6  1  0  0  0  0
  6  7  1  0  0  0  0
  7  8  2  0  0  0  0
  7  9  1  0  0  0  0
  9 10  4  0  0  0  0
 10 11  4  0  0  0  0
 11 12  4  0  0  0  0
 12 13  4  0  0  0  0
 13 14  4  0  0  0  0
  9 14  4  0  0  0  0
M  END
> <activity>
34.52204268

> <InChiKey>
MLLAPOCBLWUFAP-UHFFFAOYSA-N

$$$$

  Mrv2220 08292413012D          

 10 10  0  0  0  0            999 V2000
    2.1434   -0.4125    0.0000 C   0  0  0  0  0  0  0  0  0  0  0  0
    1.4289    0.0000    0.0000 C   0  0  0  0  0  0  0  0  0  0  0  0
    0.7145   -0.4125    0.0000 C   0  0  0  0  0  0  0  0  0  0  0  0
    0.0000    0.0000    0.0000 C   0  0  0  0  0  0  0  0  0  0  0  0
   -0.7145   -0.4125    0.0000 O   0  0  0  0  0  0  0  0  0  0  0  0
    0.0000    0.8250    0.0000 C   0  0  0  0  0  0  0  0  0  0  0  0
    0.7145    1.2375    0.0000 C   0  0  0  0  0  0  0  0  0  0  0  0
    0.1842    1.8695    0.0000 C   0  0  0  0  0  0  0  0  0  0  0  0
    1.2448    1.8695    0.0000 C   0  0  0  0  0  0  0  0  0  0  0  0
    1.4289    0.8250    0.0000 C   0  0  0  0  0  0  0  0  0  0  0  0
  1  2  1  0  0  0  0
  2  3  2  0  0  0  0
  3  4  1  0  0  0  0
  4  5  2  0  0  0  0
  4  6  1  0  0  0  0
  6  7  1  0  0  0  0
  7  8  1  0  0  0  0
  7  9  1  0  0  0  0
  7 10  1  0  0  0  0
  2 10  1  0  0  0  0
M  END
> <activity>
26.14797136

> <InChiKey>
HJOVHMDZYOCNQW-UHFFFAOYSA-N

$$$$

  Mrv2220 08292413012D          

 22 22  0  0  0  0            999 V2000
    0.7145   -2.0625    0.0000 C   0  0  0  0  0  0  0  0  0  0  0  0
    1.4289   -2.4750    0.0000 C   0  0  0  0  0  0  0  0  0  0  0  0
    1.4289   -3.3000    0.0000 C   0  0  0  0  0  0  0  0  0  0  0  0
    2.1434   -3.7125    0.0000 N   0  0  0  0  0  0  0  0  0  0  0  0
    2.8579   -3.3000    0.0000 C   0  0  0  0  0  0  0  0  0  0  0  0
    2.8579   -2.4750    0.0000 C   0  0  0  0  0  0  0  0  0  0  0  0
    3.5724   -2.0625    0.0000 C   0  0  0  0  0  0  0  0  0  0  0  0
    2.1434   -4.5375    0.0000 C   0  0  0  0  0  0  0  0  0  0  0  0
    2.8579   -4.9500    0.0000 C   0  0  0  0  0  0  0  0  0  0  0  0
    3.5724   -4.5375    0.0000 N   0  3  0  0  0  0  0  0  0  0  0  0
    4.2868   -4.9500    0.0000 O   0  0  0  0  0  0  0  0  0  0  0  0
    3.5724   -3.7125    0.0000 O   0  5  0  0  0  0  0  0  0  0  0  0
    2.8579   -5.7750    0.0000 C   0  0  0  0  0  0  0  0  0  0  0  0
    2.1434   -6.1875    0.0000 C   0  0  0  0  0  0  0  0  0  0  0  0
    2.1434   -7.0125    0.0000 C   0  0  0  0  0  0  0  0  0  0  0  0
    2.8579   -7.4250    0.0000 C   0  0  0  0  0  0  0  0  0  0  0  0
    1.4289   -7.4250    0.0000 C   0  0  0  0  0  0  0  0  0  0  0  0
    1.4289   -5.7750    0.0000 C   0  0  0  0  0  0  0  0  0  0  0  0
    1.4289   -4.9500    0.0000 C   0  0  0  0  0  0  0  0  0  0  0  0
    0.7145   -4.5375    0.0000 N   0  3  0  0  0  0  0  0  0  0  0  0
    0.7145   -3.7125    0.0000 O   0  0  0  0  0  0  0  0  0  0  0  0
    0.0000   -4.9500    0.0000 O   0  5  0  0  0  0  0  0  0  0  0  0
  1  2  1  0  0  0  0
  2  3  1  0  0  0  0
  3  4  1  0  0  0  0
  4  5  1  0  0  0  0
  5  6  1  0  0  0  0
  6  7  1  0  0  0  0
  4  8  1  0  0  0  0
  8  9  4  0  0  0  0
  9 10  1  0  0  0  0
 10 11  2  0  0  0  0
 10 12  1  0  0  0  0
  9 13  4  0  0  0  0
 13 14  4  0  0  0  0
 14 15  1  0  0  0  0
 15 16  1  0  0  0  0
 15 17  1  0  0  0  0
 14 18  4  0  0  0  0
 18 19  4  0  0  0  0
  8 19  4  0  0  0  0
 19 20  1  0  0  0  0
 20 21  2  0  0  0  0
 20 22  1  0  0  0  0
M  CHG  4  10   1  12  -1  20   1  22  -1
M  END
> <activity>
82.15626066

> <InChiKey>
NEKOXWSIMFDGMA-UHFFFAOYSA-N

$$$$

  Mrv2220 08292413012D          

 24 26  0  0  0  0            999 V2000
    0.6893   -1.3940    0.0000 C   0  0  0  0  0  0  0  0  0  0  0  0
    0.8608   -0.5870    0.0000 S   0  0  0  0  0  0  0  0  0  0  0  0
    1.6678   -0.7585    0.0000 O   0  0  0  0  0  0  0  0  0  0  0  0
    0.0538   -0.4155    0.0000 O   0  0  0  0  0  0  0  0  0  0  0  0
    1.0323    0.2200    0.0000 C   0  0  0  0  0  0  0  0  0  0  0  0
    0.4192    0.7720    0.0000 C   0  0  0  0  0  0  0  0  0  0  0  0
    0.5908    1.5790    0.0000 C   0  0  0  0  0  0  0  0  0  0  0  0
   -0.0223    2.1310    0.0000 C   0  0  0  0  0  0  0  0  0  0  0  0
   -0.6354    2.6830    0.0000 F   0  0  0  0  0  0  0  0  0  0  0  0
   -0.5744    1.5179    0.0000 F   0  0  0  0  0  0  0  0  0  0  0  0
    0.5297    2.7441    0.0000 F   0  0  0  0  0  0  0  0  0  0  0  0
    1.3754    1.8339    0.0000 C   0  0  0  0  0  0  0  0  0  0  0  0
    1.9885    1.2819    0.0000 C   0  0  0  0  0  0  0  0  0  0  0  0
    1.8170    0.4749    0.0000 C   0  0  0  0  0  0  0  0  0  0  0  0
    2.4301   -0.0771    0.0000 C   0  0  0  0  0  0  0  0  0  0  0  0
    2.2585   -0.8841    0.0000 O   0  0  0  0  0  0  0  0  0  0  0  0
    3.2147    0.1778    0.0000 C   0  0  0  0  0  0  0  0  0  0  0  0
    3.4696    0.9624    0.0000 C   0  0  0  0  0  0  0  0  0  0  0  0
    4.2946    0.9624    0.0000 N   0  0  0  0  0  0  0  0  0  0  0  0
    4.5496    0.1778    0.0000 O   0  0  0  0  0  0  0  0  0  0  0  0
    3.8821   -0.3071    0.0000 C   0  0  0  0  0  0  0  0  0  0  0  0
    3.8821   -1.1321    0.0000 C   0  0  0  0  0  0  0  0  0  0  0  0
    4.2946   -1.8466    0.0000 C   0  0  0  0  0  0  0  0  0  0  0  0
    3.4696   -1.8466    0.0000 C   0  0  0  0  0  0  0  0  0  0  0  0
  1  2  1  0  0  0  0
  2  3  2  0  0  0  0
  2  4  2  0  0  0  0
  2  5  1  0  0  0  0
  5  6  4  0  0  0  0
  6  7  4  0  0  0  0
  7  8  1  0  0  0  0
  8  9  1  0  0  0  0
  8 10  1  0  0  0  0
  8 11  1  0  0  0  0
  7 12  4  0  0  0  0
 12 13  4  0  0  0  0
 13 14  4  0  0  0  0
  5 14  4  0  0  0  0
 14 15  1  0  0  0  0
 15 16  2  0  0  0  0
 15 17  1  0  0  0  0
 17 18  4  0  0  0  0
 18 19  4  0  0  0  0
 19 20  4  0  0  0  0
 20 21  4  0  0  0  0
 17 21  4  0  0  0  0
 21 22  1  0  0  0  0
 22 23  1  0  0  0  0
 23 24  1  0  0  0  0
 22 24  1  0  0  0  0
M  END
> <activity>
68.1409764

> <InChiKey>
OYIKARCXOQLFHF-UHFFFAOYSA-N

$$$$

  Mrv2220 08292413012D          

 24 24  0  0  0  0            999 V2000
    4.2868   -9.0750    0.0000 C   0  0  0  0  0  0  0  0  0  0  0  0
    5.0013   -8.6625    0.0000 C   0  0  0  0  0  0  0  0  0  0  0  0
    5.7158   -9.0750    0.0000 C   0  0  0  0  0  0  0  0  0  0  0  0
    6.4302   -8.6625    0.0000 C   0  0  0  0  0  0  0  0  0  0  0  0
    7.1447   -9.0750    0.0000 C   0  0  0  0  0  0  0  0  0  0  0  0
    7.8592   -8.6625    0.0000 C   0  0  0  0  0  0  0  0  0  0  0  0
    8.5737   -9.0750    0.0000 C   0  0  0  0  0  0  0  0  0  0  0  0
    9.2881   -8.6625    0.0000 C   0  0  0  0  0  0  0  0  0  0  0  0
   10.0026   -9.0750    0.0000 C   0  0  0  0  0  0  0  0  0  0  0  0
   10.7171   -8.6625    0.0000 C   0  0  0  0  0  0  0  0  0  0  0  0
   11.4315   -9.0750    0.0000 C   0  0  0  0  0  0  0  0  0  0  0  0
   12.1460   -8.6625    0.0000 C   0  0  0  0  0  0  0  0  0  0  0  0
   12.8605   -9.0750    0.0000 O   0  0  0  0  0  0  0  0  0  0  0  0
   13.5749   -8.6625    0.0000 C   0  0  0  0  0  0  0  0  0  0  0  0
   13.5749   -7.8375    0.0000 O   0  0  0  0  0  0  0  0  0  0  0  0
   14.2894   -9.0750    0.0000 C   0  0  0  0  0  0  0  0  0  0  0  0
   15.0039   -8.6625    0.0000 C   0  0  0  0  0  0  0  0  0  0  0  0
   15.7184   -9.0750    0.0000 C   0  0  0  0  0  0  0  0  0  0  0  0
   16.4328   -8.6625    0.0000 O   0  0  0  0  0  0  0  0  0  0  0  0
   15.7184   -9.9000    0.0000 C   0  0  0  0  0  0  0  0  0  0  0  0
   16.4328  -10.3125    0.0000 O   0  0  0  0  0  0  0  0  0  0  0  0
   15.0039  -10.3125    0.0000 C   0  0  0  0  0  0  0  0  0  0  0  0
   15.0039  -11.1375    0.0000 O   0  0  0  0  0  0  0  0  0  0  0  0
   14.2894   -9.9000    0.0000 C   0  0  0  0  0  0  0  0  0  0  0  0
  1  2  1  0  0  0  0
  2  3  1  0  0  0  0
  3  4  1  0  0  0  0
  4  5  1  0  0  0  0
  5  6  1  0  0  0  0
  6  7  1  0  0  0  0
  7  8  1  0  0  0  0
  8  9  1  0  0  0  0
  9 10  1  0  0  0  0
 10 11  1  0  0  0  0
 11 12  1  0  0  0  0
 12 13  1  0  0  0  0
 13 14  1  0  0  0  0
 14 15  2  0  0  0  0
 14 16  1  0  0  0  0
 16 17  4  0  0  0  0
 17 18  4  0  0  0  0
 18 19  1  0  0  0  0
 18 20  4  0  0  0  0
 20 21  1  0  0  0  0
 20 22  4  0  0  0  0
 22 23  1  0  0  0  0
 22 24  4  0  0  0  0
 16 24  4  0  0  0  0
M  END
> <activity>
79.44753242

> <InChiKey>
RPWFJAMTCNSJKK-UHFFFAOYSA-N

$$$$

  Mrv2220 08292413012D          

 10 10  0  0  0  0            999 V2000
    0.0000    2.4750    0.0000 C   0  0  0  0  0  0  0  0  0  0  0  0
    0.7145    2.0625    0.0000 C   0  0  0  0  0  0  0  0  0  0  0  0
    1.4289    2.4750    0.0000 C   0  0  0  0  0  0  0  0  0  0  0  0
    0.7145    1.2375    0.0000 C   0  0  0  0  0  0  0  0  0  0  0  0
    1.4289    0.8250    0.0000 C   0  0  0  0  0  0  0  0  0  0  0  0
    1.4289   -0.0000    0.0000 C   0  0  0  0  0  0  0  0  0  0  0  0
    0.7145   -0.4125    0.0000 C   0  0  0  0  0  0  0  0  0  0  0  0
    0.7145   -1.2375    0.0000 C   0  0  0  0  0  0  0  0  0  0  0  0
    0.0000    0.0000    0.0000 C   0  0  0  0  0  0  0  0  0  0  0  0
    0.0000    0.8250    0.0000 C   0  0  0  0  0  0  0  0  0  0  0  0
  1  2  2  0  0  0  0
  2  3  1  0  0  0  0
  2  4  1  0  0  0  0
  4  5  1  0  0  0  0
  5  6  1  0  0  0  0
  6  7  2  0  0  0  0
  7  8  1  0  0  0  0
  7  9  1  0  0  0  0
  9 10  1  0  0  0  0
  4 10  1  0  0  0  0
M  END
> <activity>
5.712964798

> <InChiKey>
XMGQYMWWDOXHJM-UHFFFAOYSA-N

$$$$

  Mrv2220 08292413012D          

 17 18  0  0  0  0            999 V2000
    2.1830   -3.1950    0.0000 C   0  0  0  0  0  0  0  0  0  0  0  0
    2.4379   -2.4104    0.0000 O   0  0  0  0  0  0  0  0  0  0  0  0
    1.8859   -1.7973    0.0000 C   0  0  0  0  0  0  0  0  0  0  0  0
    1.0789   -1.9688    0.0000 C   0  0  0  0  0  0  0  0  0  0  0  0
    0.5269   -1.3557    0.0000 C   0  0  0  0  0  0  0  0  0  0  0  0
    0.7818   -0.5711    0.0000 C   0  0  0  0  0  0  0  0  0  0  0  0
    0.3693    0.1433    0.0000 N   0  0  0  0  0  0  0  0  0  0  0  0
    0.9213    0.7564    0.0000 C   0  0  0  0  0  0  0  0  0  0  0  0
    1.6750    0.4209    0.0000 C   0  0  0  0  0  0  0  0  0  0  0  0
    2.3895    0.8334    0.0000 C   0  0  0  0  0  0  0  0  0  0  0  0
    3.1039    0.4209    0.0000 C   0  0  0  0  0  0  0  0  0  0  0  0
    3.8184    0.8334    0.0000 N   0  0  0  0  0  0  0  0  0  0  0  0
    4.5329    0.4209    0.0000 C   0  0  0  0  0  0  0  0  0  0  0  0
    5.2474    0.8334    0.0000 C   0  0  0  0  0  0  0  0  0  0  0  0
    4.5329   -0.4041    0.0000 O   0  0  0  0  0  0  0  0  0  0  0  0
    1.5888   -0.3996    0.0000 C   0  0  0  0  0  0  0  0  0  0  0  0
    2.1408   -1.0127    0.0000 C   0  0  0  0  0  0  0  0  0  0  0  0
  1  2  1  0  0  0  0
  2  3  1  0  0  0  0
  3  4  4  0  0  0  0
  4  5  4  0  0  0  0
  5  6  4  0  0  0  0
  6  7  4  0  0  0  0
  7  8  4  0  0  0  0
  8  9  4  0  0  0  0
  9 10  1  0  0  0  0
 10 11  1  0  0  0  0
 11 12  1  0  0  0  0
 12 13  1  0  0  0  0
 13 14  1  0  0  0  0
 13 15  2  0  0  0  0
  9 16  4  0  0  0  0
  6 16  4  0  0  0  0
 16 17  4  0  0  0  0
  3 17  4  0  0  0  0
M  STY  1   1 DAT
M  SAL   1  1   7
M  SDT   1 MRV_IMPLICIT_H                                        
M  SDD   1     0.5304   -0.4125    DR    ALL  0       0  
M  SED   1 IMPL_H1
M  END
> <activity>
23.25688708

> <InChiKey>
DRLFMBDRBRZALE-UHFFFAOYSA-N

$$$$

  Mrv2220 08292413012D          

 11 11  0  0  0  0            999 V2000
    0.0000    3.3000    0.0000 C   0  0  0  0  0  0  0  0  0  0  0  0
    0.0000    2.4750    0.0000 O   0  0  0  0  0  0  0  0  0  0  0  0
    0.7145    2.0625    0.0000 C   0  0  0  0  0  0  0  0  0  0  0  0
    1.4289    2.4750    0.0000 O   0  0  0  0  0  0  0  0  0  0  0  0
    0.7145    1.2375    0.0000 C   0  0  0  0  0  0  0  0  0  0  0  0
    1.4289    0.8250    0.0000 C   0  0  0  0  0  0  0  0  0  0  0  0
    1.4289   -0.0000    0.0000 C   0  0  0  0  0  0  0  0  0  0  0  0
    0.7145   -0.4125    0.0000 C   0  0  0  0  0  0  0  0  0  0  0  0
    0.0000    0.0000    0.0000 C   0  0  0  0  0  0  0  0  0  0  0  0
    0.0000    0.8250    0.0000 C   0  0  0  0  0  0  0  0  0  0  0  0
   -0.7145    1.2375    0.0000 C   0  0  0  0  0  0  0  0  0  0  0  0
  1  2  1  0  0  0  0
  2  3  1  0  0  0  0
  3  4  2  0  0  0  0
  3  5  1  0  0  0  0
  5  6  4  0  0  0  0
  6  7  4  0  0  0  0
  7  8  4  0  0  0  0
  8  9  4  0  0  0  0
  9 10  4  0  0  0  0
  5 10  4  0  0  0  0
 10 11  1  0  0  0  0
M  END
> <activity>
15.10844513

> <InChiKey>
WVWZECQNFWFVFW-UHFFFAOYSA-N

$$$$

  Mrv2220 08292413012D          

 21 20  0  0  0  0            999 V2000
   -0.7658    0.3829    0.0000 C   0  0  0  0  0  0  0  0  0  0  0  0
   -0.0513    0.7954    0.0000 C   0  0  0  0  0  0  0  0  0  0  0  0
    0.6632    0.3829    0.0000 C   0  0  0  0  0  0  0  0  0  0  0  0
    1.3776    0.7954    0.0000 C   0  0  0  0  0  0  0  0  0  0  0  0
    2.0921    0.3829    0.0000 C   0  0  0  0  0  0  0  0  0  0  0  0
    2.8066    0.7954    0.0000 C   0  0  0  0  0  0  0  0  0  0  0  0
    3.5211    0.3829    0.0000 C   0  0  0  0  0  0  0  0  0  0  0  0
    4.2355    0.7954    0.0000 C   0  0  0  0  0  0  0  0  0  0  0  0
    4.2355    1.6204    0.0000 C   0  0  0  0  0  0  0  0  0  0  0  0
    4.9500    2.0329    0.0000 C   0  0  0  0  0  0  0  0  0  0  0  0
    4.9500    2.8579    0.0000 C   0  0  0  0  0  0  0  0  0  0  0  0
    5.6645    3.2704    0.0000 C   0  0  0  0  0  0  0  0  0  0  0  0
    6.3789    2.8579    0.0000 C   0  0  0  0  0  0  0  0  0  0  0  0
    7.0934    3.2704    0.0000 C   0  0  0  0  0  0  0  0  0  0  0  0
    7.8079    2.8579    0.0000 C   0  0  0  0  0  0  0  0  0  0  0  0
    8.5224    3.2704    0.0000 C   0  0  0  0  0  0  0  0  0  0  0  0
    9.2368    2.8579    0.0000 C   0  0  0  0  0  0  0  0  0  0  0  0
    9.9513    3.2704    0.0000 C   0  0  0  0  0  0  0  0  0  0  0  0
    9.9513    4.0954    0.0000 O   0  0  0  0  0  0  0  0  0  0  0  0
   10.6658    2.8579    0.0000 O   0  0  0  0  0  0  0  0  0  0  0  0
   11.3802    3.2704    0.0000 C   0  0  0  0  0  0  0  0  0  0  0  0
  1  2  1  0  0  0  0
  2  3  1  0  0  0  0
  3  4  1  0  0  0  0
  4  5  1  0  0  0  0
  6  5  1  4  0  0  0
  6  7  2  0  0  0  0
  7  8  1  0  0  0  0
  9  8  1  4  0  0  0
  9 10  2  0  0  0  0
 10 11  1  0  0  0  0
 11 12  1  0  0  0  0
 12 13  1  0  0  0  0
 13 14  1  0  0  0  0
 14 15  1  0  0  0  0
 15 16  1  0  0  0  0
 16 17  1  0  0  0  0
 17 18  1  0  0  0  0
 18 19  2  0  0  0  0
 18 20  1  0  0  0  0
 20 21  1  0  0  0  0
M  END
> <activity>
85.21879589

> <InChiKey>
WTTJVINHCBCLGX-UHFFFAOYSA-N

$$$$

  Mrv2220 08292413012D          

  7  6  0  0  0  0            999 V2000
    1.7605   -1.0164    0.0000 N   0  0  0  0  0  0  0  0  0  0  0  0
    2.4750   -1.4289    0.0000 C   0  0  0  0  0  0  0  0  0  0  0  0
    3.1895   -1.8414    0.0000 S   0  0  0  0  0  0  0  0  0  0  0  0
    3.9039   -1.4289    0.0000 C   0  0  0  0  0  0  0  0  0  0  0  0
    4.6184   -1.8414    0.0000 S   0  0  0  0  0  0  0  0  0  0  0  0
    5.3329   -1.4289    0.0000 C   0  0  0  0  0  0  0  0  0  0  0  0
    6.0474   -1.0164    0.0000 N   0  0  0  0  0  0  0  0  0  0  0  0
  1  2  3  0  0  0  0
  2  3  1  0  0  0  0
  3  4  1  0  0  0  0
  4  5  1  0  0  0  0
  5  6  1  0  0  0  0
  6  7  3  0  0  0  0
M  END
> <activity>
32.23201175

> <InChiKey>
JWZXKXIUSSIAMR-UHFFFAOYSA-N

$$$$

  Mrv2220 08292413012D          

 14 13  0  0  0  0            999 V2000
    2.4750    1.4289    0.0000 C   0  0  0  0  0  0  0  0  0  0  0  0
    2.0625    0.7145    0.0000 O   0  0  0  0  0  0  0  0  0  0  0  0
    1.2375    0.7145    0.0000 C   0  0  0  0  0  0  0  0  0  0  0  0
    0.8250    1.4289    0.0000 O   0  0  0  0  0  0  0  0  0  0  0  0
    0.8250    0.0000    0.0000 C   0  0  0  0  0  0  0  0  0  0  0  0
    0.0000    0.0000    0.0000 C   0  0  0  0  0  0  0  0  0  0  0  0
   -0.4125    0.7145    0.0000 C   0  0  0  0  0  0  0  0  0  0  0  0
   -0.4125   -0.7145    0.0000 O   0  0  0  0  0  0  0  0  0  0  0  0
   -1.2375   -0.7145    0.0000 P   0  0  0  0  0  0  0  0  0  0  0  0
   -1.2375    0.1105    0.0000 O   0  0  0  0  0  0  0  0  0  0  0  0
   -2.0625   -0.7145    0.0000 O   0  0  0  0  0  0  0  0  0  0  0  0
   -2.4750   -1.4289    0.0000 C   0  0  0  0  0  0  0  0  0  0  0  0
   -1.2375   -1.5395    0.0000 O   0  0  0  0  0  0  0  0  0  0  0  0
   -1.9520   -1.9520    0.0000 C   0  0  0  0  0  0  0  0  0  0  0  0
  1  2  1  0  0  0  0
  2  3  1  0  0  0  0
  3  4  2  0  0  0  0
  5  3  1  4  0  0  0
  5  6  2  0  0  0  0
  6  7  1  0  0  0  0
  6  8  1  0  0  0  0
  8  9  1  0  0  0  0
  9 10  2  0  0  0  0
  9 11  1  0  0  0  0
 11 12  1  0  0  0  0
  9 13  1  0  0  0  0
 13 14  1  0  0  0  0
M  END
> <activity>
13.65691376

> <InChiKey>
GEPDYQSQVLXLEU-UHFFFAOYSA-N

$$$$

  Mrv2220 08292413012D          

 19 20  0  0  0  0            999 V2000
    3.5724   -1.2375    0.0000 O   0  0  0  0  0  0  0  0  0  0  0  0
    2.8579   -1.6500    0.0000 C   0  0  0  0  0  0  0  0  0  0  0  0
    2.1434   -1.2375    0.0000 O   0  0  0  0  0  0  0  0  0  0  0  0
    2.8579   -2.4750    0.0000 C   0  0  0  0  0  0  0  0  0  0  0  0
    3.5724   -2.8875    0.0000 C   0  0  0  0  0  0  0  0  0  0  0  0
    3.5724   -3.7125    0.0000 C   0  0  0  0  0  0  0  0  0  0  0  0
    2.8579   -4.1250    0.0000 C   0  0  0  0  0  0  0  0  0  0  0  0
    2.1434   -3.7125    0.0000 C   0  0  0  0  0  0  0  0  0  0  0  0
    2.1434   -2.8875    0.0000 C   0  0  0  0  0  0  0  0  0  0  0  0
    1.4289   -2.4750    0.0000 C   0  0  0  0  0  0  0  0  0  0  0  0
    0.7145   -2.8875    0.0000 O   0  0  0  0  0  0  0  0  0  0  0  0
    1.4289   -1.6500    0.0000 O   0  0  0  0  0  0  0  0  0  0  0  0
    0.7145   -1.2375    0.0000 C   0  0  0  0  0  0  0  0  0  0  0  0
    0.7145   -0.4125    0.0000 C   0  0  0  0  0  0  0  0  0  0  0  0
    0.0000    0.0000    0.0000 C   0  0  0  0  0  0  0  0  0  0  0  0
    0.0000    0.8250    0.0000 C   0  0  0  0  0  0  0  0  0  0  0  0
    0.7145    1.2375    0.0000 C   0  0  0  0  0  0  0  0  0  0  0  0
    1.4289    0.8250    0.0000 C   0  0  0  0  0  0  0  0  0  0  0  0
    1.4289    0.0000    0.0000 C   0  0  0  0  0  0  0  0  0  0  0  0
  1  2  2  0  0  0  0
  2  3  1  0  0  0  0
  2  4  1  0  0  0  0
  4  5  4  0  0  0  0
  5  6  4  0  0  0  0
  6  7  4  0  0  0  0
  7  8  4  0  0  0  0
  8  9  4  0  0  0  0
  4  9  4  0  0  0  0
  9 10  1  0  0  0  0
 10 11  2  0  0  0  0
 10 12  1  0  0  0  0
 12 13  1  0  0  0  0
 13 14  1  0  0  0  0
 14 15  4  0  0  0  0
 15 16  4  0  0  0  0
 16 17  4  0  0  0  0
 17 18  4  0  0  0  0
 18 19  4  0  0  0  0
 14 19  4  0  0  0  0
M  END
> <activity>
70.69078615

> <InChiKey>
XIKIUQUXDNHBFR-UHFFFAOYSA-N

$$$$

  Mrv2220 08292413012D          

 20 21  0  0  0  0            999 V2000
    2.3155   -2.0494    0.0000 C   0  0  0  0  0  0  0  0  0  0  0  0
    1.4905   -2.0494    0.0000 C   0  0  0  0  0  0  0  0  0  0  0  0
    1.0780   -1.3349    0.0000 C   0  0  0  0  0  0  0  0  0  0  0  0
    0.2530   -1.3349    0.0000 C   0  0  0  0  0  0  0  0  0  0  0  0
   -0.1595   -0.6204    0.0000 C   0  0  0  0  0  0  0  0  0  0  0  0
    0.5550   -0.2079    0.0000 C   0  0  0  0  0  0  0  0  0  0  0  0
    1.2695    0.2046    0.0000 N   0  0  0  0  0  0  0  0  0  0  0  0
   -0.8739   -1.0329    0.0000 C   0  0  0  0  0  0  0  0  0  0  0  0
   -0.8739   -1.8579    0.0000 N   0  0  0  0  0  0  0  0  0  0  0  0
   -1.5414   -2.3429    0.0000 C   0  0  0  0  0  0  0  0  0  0  0  0
   -1.2864   -3.1275    0.0000 N   0  0  0  0  0  0  0  0  0  0  0  0
   -0.4614   -3.1275    0.0000 C   0  0  0  0  0  0  0  0  0  0  0  0
   -0.2065   -2.3429    0.0000 N   0  0  0  0  0  0  0  0  0  0  0  0
   -0.5720    0.0940    0.0000 C   0  0  0  0  0  0  0  0  0  0  0  0
   -1.3970    0.0940    0.0000 C   0  0  0  0  0  0  0  0  0  0  0  0
   -1.8095    0.8085    0.0000 C   0  0  0  0  0  0  0  0  0  0  0  0
   -1.3970    1.5230    0.0000 C   0  0  0  0  0  0  0  0  0  0  0  0
   -1.8095    2.2374    0.0000 Cl  0  0  0  0  0  0  0  0  0  0  0  0
   -0.5720    1.5230    0.0000 C   0  0  0  0  0  0  0  0  0  0  0  0
   -0.1595    0.8085    0.0000 C   0  0  0  0  0  0  0  0  0  0  0  0
  1  2  1  0  0  0  0
  2  3  1  0  0  0  0
  3  4  1  0  0  0  0
  4  5  1  0  0  0  0
  5  6  1  0  0  0  0
  6  7  3  0  0  0  0
  5  8  1  0  0  0  0
  8  9  1  0  0  0  0
  9 10  4  0  0  0  0
 10 11  4  0  0  0  0
 11 12  4  0  0  0  0
 12 13  4  0  0  0  0
  9 13  4  0  0  0  0
  5 14  1  0  0  0  0
 14 15  4  0  0  0  0
 15 16  4  0  0  0  0
 16 17  4  0  0  0  0
 17 18  1  0  0  0  0
 17 19  4  0  0  0  0
 19 20  4  0  0  0  0
 14 20  4  0  0  0  0
M  END
> <activity>
38.31732968

> <InChiKey>
HZJKXKUJVSEEFU-UHFFFAOYSA-N

$$$$

  Mrv2220 08292413012D          

 18 20  0  0  0  0            999 V2000
    0.8838    0.7541    0.0000 O   0  0  0  0  0  0  0  0  0  0  0  0
    1.1387   -0.0305    0.0000 C   0  0  0  0  0  0  0  0  0  0  0  0
    1.9233   -0.2854    0.0000 C   0  0  0  0  0  0  0  0  0  0  0  0
    2.6378    0.1271    0.0000 C   0  0  0  0  0  0  0  0  0  0  0  0
    3.3523   -0.2854    0.0000 C   0  0  0  0  0  0  0  0  0  0  0  0
    3.3523   -1.1104    0.0000 C   0  0  0  0  0  0  0  0  0  0  0  0
    2.6378   -1.5229    0.0000 C   0  0  0  0  0  0  0  0  0  0  0  0
    1.9233   -1.1104    0.0000 C   0  0  0  0  0  0  0  0  0  0  0  0
    1.1387   -1.3654    0.0000 C   0  0  0  0  0  0  0  0  0  0  0  0
    0.8838   -2.1500    0.0000 O   0  0  0  0  0  0  0  0  0  0  0  0
    0.6538   -0.6979    0.0000 N   0  0  0  0  0  0  0  0  0  0  0  0
   -0.1712   -0.6979    0.0000 S   0  0  0  0  0  0  0  0  0  0  0  0
   -0.5837    0.0165    0.0000 C   0  0  0  0  0  0  0  0  0  0  0  0
   -1.4087    0.0165    0.0000 C   0  0  0  0  0  0  0  0  0  0  0  0
   -1.8212    0.7310    0.0000 C   0  0  0  0  0  0  0  0  0  0  0  0
   -1.4087    1.4455    0.0000 C   0  0  0  0  0  0  0  0  0  0  0  0
   -0.5837    1.4455    0.0000 C   0  0  0  0  0  0  0  0  0  0  0  0
   -0.1712    0.7310    0.0000 C   0  0  0  0  0  0  0  0  0  0  0  0
  1  2  2  0  0  0  0
  2  3  1  0  0  0  0
  3  4  4  0  0  0  0
  4  5  4  0  0  0  0
  5  6  4  0  0  0  0
  6  7  4  0  0  0  0
  7  8  4  0  0  0  0
  3  8  4  0  0  0  0
  8  9  1  0  0  0  0
  9 10  2  0  0  0  0
  9 11  1  0  0  0  0
  2 11  1  0  0  0  0
 11 12  1  0  0  0  0
 12 13  1  0  0  0  0
 13 14  1  0  0  0  0
 14 15  1  0  0  0  0
 15 16  1  0  0  0  0
 16 17  1  0  0  0  0
 17 18  1  0  0  0  0
 13 18  1  0  0  0  0
M  END
> <activity>
59.83259912

> <InChiKey>
UEZWYKZHXASYJN-UHFFFAOYSA-N

$$$$

  Mrv2220 08292413012D          

 15 15  0  0  0  0            999 V2000
   -0.7145    5.3625    0.0000 C   0  0  0  0  0  0  0  0  0  0  0  0
   -0.7145    4.5375    0.0000 C   0  0  0  0  0  0  0  0  0  0  0  0
    0.0000    4.1250    0.0000 C   0  0  0  0  0  0  0  0  0  0  0  0
    0.0000    3.3000    0.0000 C   0  0  0  0  0  0  0  0  0  0  0  0
    0.7145    2.8875    0.0000 N   0  0  0  0  0  0  0  0  0  0  0  0
    0.7145    2.0625    0.0000 S   0  0  0  0  0  0  0  0  0  0  0  0
   -0.1105    2.0625    0.0000 O   0  0  0  0  0  0  0  0  0  0  0  0
    1.5395    2.0625    0.0000 O   0  0  0  0  0  0  0  0  0  0  0  0
    0.7145    1.2375    0.0000 C   0  0  0  0  0  0  0  0  0  0  0  0
    1.4289    0.8250    0.0000 C   0  0  0  0  0  0  0  0  0  0  0  0
    1.4289   -0.0000    0.0000 C   0  0  0  0  0  0  0  0  0  0  0  0
    0.7145   -0.4125    0.0000 C   0  0  0  0  0  0  0  0  0  0  0  0
    0.7145   -1.2375    0.0000 C   0  0  0  0  0  0  0  0  0  0  0  0
    0.0000    0.0000    0.0000 C   0  0  0  0  0  0  0  0  0  0  0  0
    0.0000    0.8250    0.0000 C   0  0  0  0  0  0  0  0  0  0  0  0
  1  2  1  0  0  0  0
  2  3  1  0  0  0  0
  3  4  1  0  0  0  0
  4  5  1  0  0  0  0
  5  6  1  0  0  0  0
  6  7  2  0  0  0  0
  6  8  2  0  0  0  0
  6  9  1  0  0  0  0
  9 10  4  0  0  0  0
 10 11  4  0  0  0  0
 11 12  4  0  0  0  0
 12 13  1  0  0  0  0
 12 14  4  0  0  0  0
 14 15  4  0  0  0  0
  9 15  4  0  0  0  0
M  END
> <activity>
18.45559151

> <InChiKey>
RQUXYBHREKXNKT-UHFFFAOYSA-N

$$$$

  Mrv2220 08292413012D          

 10 10  0  0  0  0            999 V2000
    0.0000    3.3000    0.0000 C   0  0  0  0  0  0  0  0  0  0  0  0
    0.0000    2.4750    0.0000 C   0  0  0  0  0  0  0  0  0  0  0  0
    0.7145    2.0625    0.0000 N   0  0  0  0  0  0  0  0  0  0  0  0
    0.7145    1.2375    0.0000 C   0  0  0  0  0  0  0  0  0  0  0  0
    1.4289    0.8250    0.0000 C   0  0  0  0  0  0  0  0  0  0  0  0
    1.4289   -0.0000    0.0000 C   0  0  0  0  0  0  0  0  0  0  0  0
    0.7145   -0.4125    0.0000 C   0  0  0  0  0  0  0  0  0  0  0  0
    0.0000    0.0000    0.0000 C   0  0  0  0  0  0  0  0  0  0  0  0
   -0.7145   -0.4125    0.0000 C   0  0  0  0  0  0  0  0  0  0  0  0
    0.0000    0.8250    0.0000 C   0  0  0  0  0  0  0  0  0  0  0  0
  1  2  1  0  0  0  0
  2  3  1  0  0  0  0
  3  4  1  0  0  0  0
  4  5  4  0  0  0  0
  5  6  4  0  0  0  0
  6  7  4  0  0  0  0
  7  8  4  0  0  0  0
  8  9  1  0  0  0  0
  8 10  4  0  0  0  0
  4 10  4  0  0  0  0
M  END
> <activity>
13.29528335

> <InChiKey>
GUYMMHOQXYZMJQ-UHFFFAOYSA-N

$$$$

  Mrv2220 08292413012D          

  7  7  0  0  0  0            999 V2000
   -0.1467    2.3518    0.0000 O   0  0  0  0  0  0  0  0  0  0  0  0
    0.5678    1.9393    0.0000 N   0  0  0  0  0  0  0  0  0  0  0  0
    0.5678    1.1143    0.0000 N   0  0  0  0  0  0  0  0  0  0  0  0
    1.2352    0.6294    0.0000 C   0  0  0  0  0  0  0  0  0  0  0  0
    0.9803   -0.1553    0.0000 C   0  0  0  0  0  0  0  0  0  0  0  0
    0.1553   -0.1553    0.0000 C   0  0  0  0  0  0  0  0  0  0  0  0
   -0.0997    0.6294    0.0000 C   0  0  0  0  0  0  0  0  0  0  0  0
  1  2  2  0  0  0  0
  2  3  1  0  0  0  0
  3  4  1  0  0  0  0
  4  5  1  0  0  0  0
  5  6  1  0  0  0  0
  6  7  1  0  0  0  0
  3  7  1  0  0  0  0
M  END
> <activity>
8.039673978

> <InChiKey>
WNYADZVDBIBLJJ-UHFFFAOYSA-N

$$$$

  Mrv2220 08292413012D          

 14 13  0  0  0  0            999 V2000
   -1.4289    3.9039    0.0000 C   0  0  0  0  0  0  0  0  0  0  0  0
   -0.7145    3.4914    0.0000 C   0  0  0  0  0  0  0  0  0  0  0  0
   -0.7145    2.6664    0.0000 C   0  0  0  0  0  0  0  0  0  0  0  0
   -0.0000    2.2539    0.0000 C   0  0  0  0  0  0  0  0  0  0  0  0
   -0.0000    1.4289    0.0000 N   0  3  0  0  0  0  0  0  0  0  0  0
   -0.8250    1.4289    0.0000 C   0  0  0  0  0  0  0  0  0  0  0  0
   -0.0000    0.6039    0.0000 C   0  0  0  0  0  0  0  0  0  0  0  0
   -0.7145    0.1914    0.0000 C   0  0  0  0  0  0  0  0  0  0  0  0
   -1.4289    0.6039    0.0000 C   0  0  0  0  0  0  0  0  0  0  0  0
   -2.1434    0.1914    0.0000 C   0  0  0  0  0  0  0  0  0  0  0  0
    0.8250    1.4289    0.0000 C   0  0  0  0  0  0  0  0  0  0  0  0
    1.2375    0.7145    0.0000 C   0  0  0  0  0  0  0  0  0  0  0  0
    0.8250    0.0000    0.0000 C   0  0  0  0  0  0  0  0  0  0  0  0
    0.0000    0.0000    0.0000 C   0  0  0  0  0  0  0  0  0  0  0  0
  1  2  1  0  0  0  0
  2  3  1  0  0  0  0
  3  4  1  0  0  0  0
  4  5  1  0  0  0  0
  5  6  1  0  0  0  0
  5  7  1  0  0  0  0
  7  8  1  0  0  0  0
  8  9  1  0  0  0  0
  9 10  1  0  0  0  0
  5 11  1  0  0  0  0
 11 12  1  0  0  0  0
 12 13  1  0  0  0  0
 13 14  1  0  0  0  0
M  CHG  1   5   1
M  END
> <activity>
12.15457387

> <InChiKey>
HJHUXWBTVVFLQI-UHFFFAOYSA-N

$$$$

  Mrv2220 08292413012D          

  6  5  0  0  0  0            999 V2000
    0.8250    1.4289    0.0000 C   0  0  0  0  0  0  0  0  0  0  0  0
    1.2375    0.7145    0.0000 C   0  0  0  0  0  0  0  0  0  0  0  0
    2.0625    0.7145    0.0000 O   0  0  0  0  0  0  0  0  0  0  0  0
    0.8250    0.0000    0.0000 N   0  0  0  0  0  0  0  0  0  0  0  0
    1.2375   -0.7145    0.0000 C   0  0  0  0  0  0  0  0  0  0  0  0
    0.0000    0.0000    0.0000 C   0  0  0  0  0  0  0  0  0  0  0  0
  1  2  1  0  0  0  0
  2  3  2  0  0  0  0
  2  4  1  0  0  0  0
  4  5  1  0  0  0  0
  4  6  1  0  0  0  0
M  END
> <activity>
18.58873578

> <InChiKey>
FXHOOIRPVKKKFG-UHFFFAOYSA-N

$$$$

  Mrv2220 08292413012D          

  9  9  0  0  0  0            999 V2000
    0.0000    2.4750    0.0000 C   0  0  0  0  0  0  0  0  0  0  0  0
    0.7145    2.0625    0.0000 N   0  0  0  0  0  0  0  0  0  0  0  0
    1.4289    2.4750    0.0000 C   0  0  0  0  0  0  0  0  0  0  0  0
    0.7145    1.2375    0.0000 C   0  0  0  0  0  0  0  0  0  0  0  0
    1.4289    0.8250    0.0000 C   0  0  0  0  0  0  0  0  0  0  0  0
    1.4289   -0.0000    0.0000 C   0  0  0  0  0  0  0  0  0  0  0  0
    0.7145   -0.4125    0.0000 C   0  0  0  0  0  0  0  0  0  0  0  0
    0.0000    0.0000    0.0000 C   0  0  0  0  0  0  0  0  0  0  0  0
    0.0000    0.8250    0.0000 C   0  0  0  0  0  0  0  0  0  0  0  0
  1  2  1  0  0  0  0
  2  3  1  0  0  0  0
  2  4  1  0  0  0  0
  4  5  4  0  0  0  0
  5  6  4  0  0  0  0
  6  7  4  0  0  0  0
  7  8  4  0  0  0  0
  8  9  4  0  0  0  0
  4  9  4  0  0  0  0
M  END
> <activity>
26.00625244

> <InChiKey>
JLTDJTHDQAWBAV-UHFFFAOYSA-N

$$$$

  Mrv2220 08292413012D          

  9  9  0  0  0  0            999 V2000
    0.0000    2.4750    0.0000 N   0  0  0  0  0  0  0  0  0  0  0  0
    0.7145    2.0625    0.0000 C   0  0  0  0  0  0  0  0  0  0  0  0
    1.4289    2.4750    0.0000 O   0  0  0  0  0  0  0  0  0  0  0  0
    0.7145    1.2375    0.0000 C   0  0  0  0  0  0  0  0  0  0  0  0
    1.4289    0.8250    0.0000 C   0  0  0  0  0  0  0  0  0  0  0  0
    1.4289   -0.0000    0.0000 C   0  0  0  0  0  0  0  0  0  0  0  0
    0.7145   -0.4125    0.0000 C   0  0  0  0  0  0  0  0  0  0  0  0
    0.0000    0.0000    0.0000 N   0  0  0  0  0  0  0  0  0  0  0  0
    0.0000    0.8250    0.0000 C   0  0  0  0  0  0  0  0  0  0  0  0
  1  2  1  0  0  0  0
  2  3  2  0  0  0  0
  2  4  1  0  0  0  0
  4  5  4  0  0  0  0
  5  6  4  0  0  0  0
  6  7  4  0  0  0  0
  7  8  4  0  0  0  0
  8  9  4  0  0  0  0
  4  9  4  0  0  0  0
M  END
> <activity>
0.420542883

> <InChiKey>
DFPAKSUCGFBDDF-UHFFFAOYSA-N

$$$$

  Mrv2220 08292413012D          

 27 29  0  0  0  0            999 V2000
    2.4750    1.6500    0.0000 C   0  0  0  0  0  0  0  0  0  0  0  0
    1.7605    1.2375    0.0000 O   0  0  0  0  0  0  0  0  0  0  0  0
    1.7605    0.4125    0.0000 C   0  0  0  0  0  0  0  0  0  0  0  0
    2.4750   -0.0000    0.0000 C   0  0  0  0  0  0  0  0  0  0  0  0
    3.1895    0.4125    0.0000 O   0  0  0  0  0  0  0  0  0  0  0  0
    3.9039    0.0000    0.0000 C   0  0  0  0  0  0  0  0  0  0  0  0
    3.9039   -0.8250    0.0000 O   0  0  0  0  0  0  0  0  0  0  0  0
    4.6184    0.4125    0.0000 N   0  0  0  0  0  0  0  0  0  0  0  0
    5.3329    0.0000    0.0000 C   0  0  0  0  0  0  0  0  0  0  0  0
    5.3329   -0.8250    0.0000 O   0  0  0  0  0  0  0  0  0  0  0  0
    6.0474    0.4125    0.0000 C   0  0  0  0  0  0  0  0  0  0  0  0
    6.7618    0.0000    0.0000 Cl  0  0  0  0  0  0  0  0  0  0  0  0
    2.4750   -0.8250    0.0000 C   0  0  0  0  0  0  0  0  0  0  0  0
    1.7605   -1.2375    0.0000 C   0  0  0  0  0  0  0  0  0  0  0  0
    1.0461   -0.8250    0.0000 C   0  0  0  0  0  0  0  0  0  0  0  0
    0.6336   -1.5395    0.0000 C   0  0  0  0  0  0  0  0  0  0  0  0
    0.2211   -0.8250    0.0000 O   0  0  0  0  0  0  0  0  0  0  0  0
    1.0461   -0.0000    0.0000 C   0  0  0  0  0  0  0  0  0  0  0  0
    0.3316    0.4125    0.0000 C   0  0  0  0  0  0  0  0  0  0  0  0
    0.6138    1.1877    0.0000 C   0  0  0  0  0  0  0  0  0  0  0  0
   -0.1987   -0.2195    0.0000 O   0  0  0  0  0  0  0  0  0  0  0  0
   -0.4809    0.5558    0.0000 C   0  0  0  0  0  0  0  0  0  0  0  0
   -1.1129    1.0861    0.0000 C   0  0  0  0  0  0  0  0  0  0  0  0
   -1.8881    0.8039    0.0000 C   0  0  0  0  0  0  0  0  0  0  0  0
   -2.5201    1.3342    0.0000 C   0  0  0  0  0  0  0  0  0  0  0  0
   -3.2953    1.0520    0.0000 C   0  0  0  0  0  0  0  0  0  0  0  0
   -2.3768    2.1467    0.0000 C   0  0  0  0  0  0  0  0  0  0  0  0
  1  2  1  0  0  0  0
  2  3  1  0  0  0  0
  3  4  1  0  0  0  0
  4  5  1  0  0  0  0
  5  6  1  0  0  0  0
  6  7  2  0  0  0  0
  6  8  1  0  0  0  0
  8  9  1  0  0  0  0
  9 10  2  0  0  0  0
  9 11  1  0  0  0  0
 11 12  1  0  0  0  0
  4 13  1  0  0  0  0
 13 14  1  0  0  0  0
 14 15  1  0  0  0  0
 15 16  1  0  0  0  0
 16 17  1  0  0  0  0
 15 17  1  0  0  0  0
 15 18  1  0  0  0  0
  3 18  1  0  0  0  0
 18 19  1  0  0  0  0
 19 20  1  0  0  0  0
 19 21  1  0  0  0  0
 21 22  1  0  0  0  0
 19 22  1  0  0  0  0
 22 23  1  0  0  0  0
 23 24  1  0  0  0  0
 24 25  2  0  0  0  0
 25 26  1  0  0  0  0
 25 27  1  0  0  0  0
M  END
> <activity>
-19.68082884

> <InChiKey>
MSHZHSPISPJWHW-UHFFFAOYSA-N

$$$$

  Mrv2220 08292413012D          

 13 12  0  0  0  0            999 V2000
   -0.6039   -3.3000    0.0000 C   0  0  0  0  0  0  0  0  0  0  0  0
   -0.6039   -2.4750    0.0000 Si  0  0  0  0  0  0  0  0  0  0  0  0
    0.2211   -2.4750    0.0000 C   0  0  0  0  0  0  0  0  0  0  0  0
   -1.4289   -2.4750    0.0000 C   0  0  0  0  0  0  0  0  0  0  0  0
   -0.6039   -1.6500    0.0000 O   0  0  0  0  0  0  0  0  0  0  0  0
    0.1105   -1.2375    0.0000 Si  0  0  0  0  0  0  0  0  0  0  0  0
    0.5230   -1.9520    0.0000 C   0  0  0  0  0  0  0  0  0  0  0  0
   -0.3020   -0.5230    0.0000 C   0  0  0  0  0  0  0  0  0  0  0  0
    0.8250   -0.8250    0.0000 O   0  0  0  0  0  0  0  0  0  0  0  0
    0.8250    0.0000    0.0000 Si  0  0  0  0  0  0  0  0  0  0  0  0
    0.8250    0.8250    0.0000 C   0  0  0  0  0  0  0  0  0  0  0  0
    1.6500   -0.0000    0.0000 C   0  0  0  0  0  0  0  0  0  0  0  0
    0.0000    0.0000    0.0000 C   0  0  0  0  0  0  0  0  0  0  0  0
  1  2  1  0  0  0  0
  2  3  1  0  0  0  0
  2  4  1  0  0  0  0
  2  5  1  0  0  0  0
  5  6  1  0  0  0  0
  6  7  1  0  0  0  0
  6  8  1  0  0  0  0
  6  9  1  0  0  0  0
  9 10  1  0  0  0  0
 10 11  1  0  0  0  0
 10 12  1  0  0  0  0
 10 13  1  0  0  0  0
M  END
> <activity>
4.638518977

> <InChiKey>
CXQXSVUQTKDNFP-UHFFFAOYSA-N

$$$$

  Mrv2220 08292413012D          

  9  9  0  0  0  0            999 V2000
    0.0000    2.4750    0.0000 C   0  0  0  0  0  0  0  0  0  0  0  0
    0.7145    2.0625    0.0000 O   0  0  0  0  0  0  0  0  0  0  0  0
    0.7145    1.2375    0.0000 C   0  0  0  0  0  0  0  0  0  0  0  0
    1.4289    0.8250    0.0000 C   0  0  0  0  0  0  0  0  0  0  0  0
    1.4289   -0.0000    0.0000 C   0  0  0  0  0  0  0  0  0  0  0  0
    0.7145   -0.4125    0.0000 C   0  0  0  0  0  0  0  0  0  0  0  0
    0.7145   -1.2375    0.0000 N   0  0  0  0  0  0  0  0  0  0  0  0
    0.0000    0.0000    0.0000 C   0  0  0  0  0  0  0  0  0  0  0  0
    0.0000    0.8250    0.0000 C   0  0  0  0  0  0  0  0  0  0  0  0
  1  2  1  0  0  0  0
  2  3  1  0  0  0  0
  3  4  4  0  0  0  0
  4  5  4  0  0  0  0
  5  6  4  0  0  0  0
  6  7  1  0  0  0  0
  6  8  4  0  0  0  0
  8  9  4  0  0  0  0
  3  9  4  0  0  0  0
M  END
> <activity>
19.36512646

> <InChiKey>
BHAAPTBBJKJZER-UHFFFAOYSA-N

$$$$

  Mrv2220 08292413012D          

  8  8  0  0  0  0            999 V2000
    0.7145    2.0625    0.0000 C   0  0  0  0  0  0  0  0  0  0  0  0
    0.7145    1.2375    0.0000 C   0  0  0  0  0  0  0  0  0  0  0  0
    1.4289    0.8250    0.0000 C   0  0  0  0  0  0  0  0  0  0  0  0
    1.4289   -0.0000    0.0000 C   0  0  0  0  0  0  0  0  0  0  0  0
    0.7145   -0.4125    0.0000 C   0  0  0  0  0  0  0  0  0  0  0  0
    0.7145   -1.2375    0.0000 O   0  0  0  0  0  0  0  0  0  0  0  0
    0.0000    0.0000    0.0000 C   0  0  0  0  0  0  0  0  0  0  0  0
    0.0000    0.8250    0.0000 C   0  0  0  0  0  0  0  0  0  0  0  0
  1  2  1  0  0  0  0
  2  3  4  0  0  0  0
  3  4  4  0  0  0  0
  4  5  4  0  0  0  0
  5  6  1  0  0  0  0
  5  7  4  0  0  0  0
  7  8  4  0  0  0  0
  2  8  4  0  0  0  0
M  END
> <activity>
20.40143369

> <InChiKey>
IWDCLRJOBJJRNH-UHFFFAOYSA-N

$$$$

  Mrv2220 08292413012D          

 13 12  0  0  0  0            999 V2000
    2.2836    2.1434    0.0000 C   0  0  0  0  0  0  0  0  0  0  0  0
    2.9980    2.5559    0.0000 C   0  0  0  0  0  0  0  0  0  0  0  0
    3.7125    2.1434    0.0000 C   0  0  0  0  0  0  0  0  0  0  0  0
    4.4270    2.5559    0.0000 C   0  0  0  0  0  0  0  0  0  0  0  0
    5.1414    2.1434    0.0000 N   0  0  0  0  0  0  0  0  0  0  0  0
    5.1414    1.3184    0.0000 C   0  0  0  0  0  0  0  0  0  0  0  0
    5.8559    0.9059    0.0000 C   0  0  0  0  0  0  0  0  0  0  0  0
    5.8559    2.5559    0.0000 C   0  0  0  0  0  0  0  0  0  0  0  0
    5.8559    3.3809    0.0000 O   0  0  0  0  0  0  0  0  0  0  0  0
    6.5704    2.1434    0.0000 S   0  0  0  0  0  0  0  0  0  0  0  0
    7.2849    2.5559    0.0000 C   0  0  0  0  0  0  0  0  0  0  0  0
    7.9993    2.1434    0.0000 C   0  0  0  0  0  0  0  0  0  0  0  0
    8.7138    2.5559    0.0000 C   0  0  0  0  0  0  0  0  0  0  0  0
  1  2  1  0  0  0  0
  2  3  1  0  0  0  0
  3  4  1  0  0  0  0
  4  5  1  0  0  0  0
  5  6  1  0  0  0  0
  6  7  1  0  0  0  0
  5  8  1  0  0  0  0
  8  9  2  0  0  0  0
  8 10  1  0  0  0  0
 10 11  1  0  0  0  0
 11 12  1  0  0  0  0
 12 13  1  0  0  0  0
M  END
> <activity>
2.28283676

> <InChiKey>
SGEJQUSYQTVSIU-UHFFFAOYSA-N

$$$$

  Mrv2220 08292413012D          

 25 28  0  0  0  0            999 V2000
    5.9902   -0.2077    0.0000 C   0  0  0  0  0  0  0  0  0  0  0  0
    5.5591    0.4958    0.0000 C   0  0  0  0  0  0  0  0  0  0  0  0
    5.8749    1.2579    0.0000 N   0  0  0  0  0  0  0  0  0  0  0  0
    5.2476    1.7938    0.0000 N   0  0  0  0  0  0  0  0  0  0  0  0
    4.5441    1.3627    0.0000 C   0  0  0  0  0  0  0  0  0  0  0  0
    4.7367    0.5605    0.0000 C   0  0  0  0  0  0  0  0  0  0  0  0
    4.2295   -0.0902    0.0000 N   0  0  0  0  0  0  0  0  0  0  0  0
    3.4046   -0.0994    0.0000 C   0  0  0  0  0  0  0  0  0  0  0  0
    3.0550   -0.8467    0.0000 C   0  0  0  0  0  0  0  0  0  0  0  0
    3.5273   -1.5231    0.0000 C   0  0  0  0  0  0  0  0  0  0  0  0
    3.1777   -2.2703    0.0000 C   0  0  0  0  0  0  0  0  0  0  0  0
    2.3557   -2.3412    0.0000 C   0  0  0  0  0  0  0  0  0  0  0  0
    1.8834   -1.6648    0.0000 C   0  0  0  0  0  0  0  0  0  0  0  0
    2.2330   -0.9175    0.0000 C   0  0  0  0  0  0  0  0  0  0  0  0
    1.7607   -0.2411    0.0000 Cl  0  0  0  0  0  0  0  0  0  0  0  0
    2.8830    0.5398    0.0000 C   0  0  0  0  0  0  0  0  0  0  0  0
    2.0974    0.2878    0.0000 C   0  0  0  0  0  0  0  0  0  0  0  0
    1.4864    0.8422    0.0000 C   0  0  0  0  0  0  0  0  0  0  0  0
    0.7009    0.5902    0.0000 N   0  3  0  0  0  0  0  0  0  0  0  0
    0.5263   -0.2161    0.0000 O   0  0  0  0  0  0  0  0  0  0  0  0
    0.0899    1.1446    0.0000 O   0  5  0  0  0  0  0  0  0  0  0  0
    1.6610    1.6485    0.0000 C   0  0  0  0  0  0  0  0  0  0  0  0
    2.4466    1.9005    0.0000 C   0  0  0  0  0  0  0  0  0  0  0  0
    3.0576    1.3461    0.0000 C   0  0  0  0  0  0  0  0  0  0  0  0
    3.7969    1.7124    0.0000 N   0  0  0  0  0  0  0  0  0  0  0  0
  1  2  1  0  0  0  0
  2  3  4  0  0  0  0
  3  4  4  0  0  0  0
  4  5  4  0  0  0  0
  5  6  4  0  0  0  0
  2  6  4  0  0  0  0
  6  7  1  0  0  0  0
  7  8  2  0  0  0  0
  8  9  1  0  0  0  0
  9 10  4  0  0  0  0
 10 11  4  0  0  0  0
 11 12  4  0  0  0  0
 12 13  4  0  0  0  0
 13 14  4  0  0  0  0
  9 14  4  0  0  0  0
 14 15  1  0  0  0  0
  8 16  1  0  0  0  0
 16 17  4  0  0  0  0
 17 18  4  0  0  0  0
 18 19  1  0  0  0  0
 19 20  2  0  0  0  0
 19 21  1  0  0  0  0
 18 22  4  0  0  0  0
 22 23  4  0  0  0  0
 23 24  4  0  0  0  0
 16 24  4  0  0  0  0
 24 25  1  0  0  0  0
  5 25  1  0  0  0  0
M  CHG  2  19   1  21  -1
M  STY  1   1 DAT
M  SAL   1  1   3
M  SDT   1 MRV_IMPLICIT_H                                        
M  SDD   1     0.5304   -0.4125    DR    ALL  0       0  
M  SED   1 IMPL_H1
M  END
> <activity>
89.9090277

> <InChiKey>
UVLBAPBHAHFJSY-UHFFFAOYSA-N

$$$$

  Mrv2220 08292413012D          

 22 23  0  0  0  0            999 V2000
    0.0000   -1.6500    0.0000 O   0  0  0  0  0  0  0  0  0  0  0  0
    0.7145   -1.2375    0.0000 C   0  0  0  0  0  0  0  0  0  0  0  0
    1.4289   -1.6500    0.0000 N   0  0  0  0  0  0  0  0  0  0  0  0
    1.4289   -2.4750    0.0000 S   0  0  0  0  0  0  0  0  0  0  0  0
    2.2539   -2.4750    0.0000 O   0  0  0  0  0  0  0  0  0  0  0  0
    0.6039   -2.4750    0.0000 O   0  0  0  0  0  0  0  0  0  0  0  0
    1.4289   -3.3000    0.0000 C   0  0  0  0  0  0  0  0  0  0  0  0
    0.7145   -3.7125    0.0000 C   0  0  0  0  0  0  0  0  0  0  0  0
    0.7145   -4.5375    0.0000 C   0  0  0  0  0  0  0  0  0  0  0  0
    1.4289   -4.9500    0.0000 C   0  0  0  0  0  0  0  0  0  0  0  0
    1.4289   -5.7750    0.0000 C   0  0  0  0  0  0  0  0  0  0  0  0
    0.7145   -6.1875    0.0000 C   0  0  0  0  0  0  0  0  0  0  0  0
    0.0000   -5.7750    0.0000 C   0  0  0  0  0  0  0  0  0  0  0  0
    0.0000   -4.9500    0.0000 C   0  0  0  0  0  0  0  0  0  0  0  0
    0.7145   -0.4125    0.0000 C   0  0  0  0  0  0  0  0  0  0  0  0
    0.0000    0.0000    0.0000 C   0  0  0  0  0  0  0  0  0  0  0  0
    0.0000    0.8250    0.0000 C   0  0  0  0  0  0  0  0  0  0  0  0
    0.7145    1.2375    0.0000 C   0  0  0  0  0  0  0  0  0  0  0  0
    0.7145    2.0625    0.0000 F   0  0  0  0  0  0  0  0  0  0  0  0
    1.4289    0.8250    0.0000 C   0  0  0  0  0  0  0  0  0  0  0  0
    1.4289   -0.0000    0.0000 C   0  0  0  0  0  0  0  0  0  0  0  0
    2.1434   -0.4125    0.0000 Cl  0  0  0  0  0  0  0  0  0  0  0  0
  1  2  2  0  0  0  0
  2  3  1  0  0  0  0
  3  4  1  0  0  0  0
  4  5  2  0  0  0  0
  4  6  2  0  0  0  0
  7  4  1  4  0  0  0
  7  8  2  0  0  0  0
  8  9  1  0  0  0  0
  9 10  4  0  0  0  0
 10 11  4  0  0  0  0
 11 12  4  0  0  0  0
 12 13  4  0  0  0  0
 13 14  4  0  0  0  0
  9 14  4  0  0  0  0
  2 15  1  0  0  0  0
 15 16  4  0  0  0  0
 16 17  4  0  0  0  0
 17 18  4  0  0  0  0
 18 19  1  0  0  0  0
 18 20  4  0  0  0  0
 20 21  4  0  0  0  0
 15 21  4  0  0  0  0
 21 22  1  0  0  0  0
M  END
> <activity>
92.73029214

> <InChiKey>
AUMLVMKWJGCERZ-UHFFFAOYSA-N

$$$$

  Mrv2220 08292413012D          

 10  9  0  0  0  0            999 V2000
    0.8250   -1.4289    0.0000 C   0  0  0  0  0  0  0  0  0  0  0  0
    1.2375   -2.1434    0.0000 C   0  0  0  0  0  0  0  0  0  0  0  0
    2.0625   -2.1434    0.0000 C   0  0  0  0  0  0  0  0  0  0  0  0
    2.4750   -2.8579    0.0000 C   0  0  0  0  0  0  0  0  0  0  0  0
    3.3000   -2.8579    0.0000 C   0  0  0  0  0  0  0  0  0  0  0  0
    3.7125   -3.5724    0.0000 C   0  0  0  0  0  0  0  0  0  0  0  0
    4.5375   -3.5724    0.0000 C   0  0  0  0  0  0  0  0  0  0  0  0
    3.7125   -2.1434    0.0000 C   0  0  0  0  0  0  0  0  0  0  0  0
    3.3000   -1.4289    0.0000 O   0  0  0  0  0  0  0  0  0  0  0  0
    4.5375   -2.1434    0.0000 O   0  0  0  0  0  0  0  0  0  0  0  0
  1  2  1  0  0  0  0
  2  3  1  0  0  0  0
  3  4  1  0  0  0  0
  4  5  1  0  0  0  0
  5  6  1  0  0  0  0
  6  7  1  0  0  0  0
  5  8  1  0  0  0  0
  8  9  2  0  0  0  0
  8 10  1  0  0  0  0
M  END
> <activity>
22.60326922

> <InChiKey>
OBETXYAYXDNJHR-UHFFFAOYSA-N

$$$$

  Mrv2220 08292413012D          

 26 29  0  0  0  0            999 V2000
    4.5466   -0.5086    0.0000 C   0  0  0  0  0  0  0  0  0  0  0  0
    4.8269    0.2673    0.0000 C   0  0  0  0  0  0  0  0  0  0  0  0
    5.3587   -0.3634    0.0000 C   0  0  0  0  0  0  0  0  0  0  0  0
    6.1708   -0.2182    0.0000 C   0  0  0  0  0  0  0  0  0  0  0  0
    6.4511    0.5577    0.0000 C   0  0  0  0  0  0  0  0  0  0  0  0
    7.2632    0.7029    0.0000 O   0  0  0  0  0  0  0  0  0  0  0  0
    5.9193    1.1884    0.0000 C   0  0  0  0  0  0  0  0  0  0  0  0
    5.1072    1.0432    0.0000 C   0  0  0  0  0  0  0  0  0  0  0  0
    4.5754    1.6739    0.0000 C   0  0  0  0  0  0  0  0  0  0  0  0
    3.7633    1.5287    0.0000 C   0  0  0  0  0  0  0  0  0  0  0  0
    3.4830    0.7528    0.0000 C   0  0  0  0  0  0  0  0  0  0  0  0
    4.0148    0.1221    0.0000 C   0  0  0  0  0  0  0  0  0  0  0  0
    3.7345   -0.6539    0.0000 C   0  0  0  0  0  0  0  0  0  0  0  0
    4.2663   -1.2846    0.0000 O   0  0  0  0  0  0  0  0  0  0  0  0
    2.9224   -0.7991    0.0000 C   0  0  0  0  0  0  0  0  0  0  0  0
    2.3905   -0.1684    0.0000 C   0  0  0  0  0  0  0  0  0  0  0  0
    2.0307   -0.9107    0.0000 C   0  0  0  0  0  0  0  0  0  0  0  0
    2.6708    0.6076    0.0000 C   0  0  0  0  0  0  0  0  0  0  0  0
    2.0195    1.1139    0.0000 C   0  0  0  0  0  0  0  0  0  0  0  0
    1.3367    0.6509    0.0000 C   0  0  0  0  0  0  0  0  0  0  0  0
    1.5660   -0.1416    0.0000 C   0  0  0  0  0  0  0  0  0  0  0  0
    0.8051   -0.4604    0.0000 O   0  0  0  0  0  0  0  0  0  0  0  0
    1.4446   -0.9576    0.0000 C   0  0  0  0  0  0  0  0  0  0  0  0
    2.0906   -1.4707    0.0000 O   0  0  0  0  0  0  0  0  0  0  0  0
    0.6772   -1.2604    0.0000 C   0  0  0  0  0  0  0  0  0  0  0  0
    0.5558   -2.0765    0.0000 O   0  0  0  0  0  0  0  0  0  0  0  0
  1  2  1  0  0  0  0
  2  3  1  0  0  0  0
  3  4  2  0  0  0  0
  4  5  1  0  0  0  0
  5  6  2  0  0  0  0
  5  7  1  0  0  0  0
  7  8  2  0  0  0  0
  2  8  1  0  0  0  0
  8  9  1  0  0  0  0
  9 10  1  0  0  0  0
 10 11  1  0  0  0  0
 11 12  1  0  0  0  0
  2 12  1  0  0  0  0
 12 13  1  0  0  0  0
 13 14  2  0  0  0  0
 13 15  1  0  0  0  0
 15 16  1  0  0  0  0
 16 17  1  0  0  0  0
 16 18  1  0  0  0  0
 11 18  1  0  0  0  0
 18 19  1  0  0  0  0
 19 20  1  0  0  0  0
 20 21  1  0  0  0  0
 16 21  1  0  0  0  0
 21 22  1  0  0  0  0
 21 23  1  0  0  0  0
 23 24  2  0  0  0  0
 23 25  1  0  0  0  0
 25 26  1  0  0  0  0
M  END
> <activity>
102.5733648

> <InChiKey>
XOFYZVNMUHMLCC-UHFFFAOYSA-N

$$$$

  Mrv2220 08292413012D          

 24 24  0  0  0  0            999 V2000
    0.7145   -2.0625    0.0000 C   0  0  0  0  0  0  0  0  0  0  0  0
    1.4289   -2.4750    0.0000 C   0  0  0  0  0  0  0  0  0  0  0  0
    1.4289   -3.3000    0.0000 C   0  0  0  0  0  0  0  0  0  0  0  0
    2.1434   -3.7125    0.0000 N   0  0  0  0  0  0  0  0  0  0  0  0
    2.8579   -3.3000    0.0000 C   0  0  0  0  0  0  0  0  0  0  0  0
    2.8579   -2.4750    0.0000 C   0  0  0  0  0  0  0  0  0  0  0  0
    3.5724   -2.0625    0.0000 C   0  0  0  0  0  0  0  0  0  0  0  0
    2.1434   -4.5375    0.0000 C   0  0  0  0  0  0  0  0  0  0  0  0
    2.8579   -4.9500    0.0000 C   0  0  0  0  0  0  0  0  0  0  0  0
    3.5724   -4.5375    0.0000 N   0  3  0  0  0  0  0  0  0  0  0  0
    4.2868   -4.9500    0.0000 O   0  0  0  0  0  0  0  0  0  0  0  0
    3.5724   -3.7125    0.0000 O   0  5  0  0  0  0  0  0  0  0  0  0
    2.8579   -5.7750    0.0000 C   0  0  0  0  0  0  0  0  0  0  0  0
    2.1434   -6.1875    0.0000 C   0  0  0  0  0  0  0  0  0  0  0  0
    2.1434   -7.0125    0.0000 C   0  0  0  0  0  0  0  0  0  0  0  0
    2.1434   -7.8375    0.0000 F   0  0  0  0  0  0  0  0  0  0  0  0
    1.3184   -7.0125    0.0000 F   0  0  0  0  0  0  0  0  0  0  0  0
    2.9684   -7.0125    0.0000 F   0  0  0  0  0  0  0  0  0  0  0  0
    1.4289   -5.7750    0.0000 C   0  0  0  0  0  0  0  0  0  0  0  0
    0.7145   -6.1875    0.0000 N   0  0  0  0  0  0  0  0  0  0  0  0
    1.4289   -4.9500    0.0000 C   0  0  0  0  0  0  0  0  0  0  0  0
    0.7145   -4.5375    0.0000 N   0  3  0  0  0  0  0  0  0  0  0  0
    0.7145   -3.7125    0.0000 O   0  0  0  0  0  0  0  0  0  0  0  0
    0.0000   -4.9500    0.0000 O   0  5  0  0  0  0  0  0  0  0  0  0
  1  2  1  0  0  0  0
  2  3  1  0  0  0  0
  3  4  1  0  0  0  0
  4  5  1  0  0  0  0
  5  6  1  0  0  0  0
  6  7  1  0  0  0  0
  4  8  1  0  0  0  0
  8  9  4  0  0  0  0
  9 10  1  0  0  0  0
 10 11  2  0  0  0  0
 10 12  1  0  0  0  0
  9 13  4  0  0  0  0
 13 14  4  0  0  0  0
 14 15  1  0  0  0  0
 15 16  1  0  0  0  0
 15 17  1  0  0  0  0
 15 18  1  0  0  0  0
 14 19  4  0  0  0  0
 19 20  1  0  0  0  0
 19 21  4  0  0  0  0
  8 21  4  0  0  0  0
 21 22  1  0  0  0  0
 22 23  2  0  0  0  0
 22 24  1  0  0  0  0
M  CHG  4  10   1  12  -1  22   1  24  -1
M  END
> <activity>
106.5983528

> <InChiKey>
RSVPPPHXAASNOL-UHFFFAOYSA-N

$$$$

  Mrv2220 08292413012D          

 14 14  0  0  0  0            999 V2000
    1.4289   -2.4750    0.0000 C   0  0  0  0  0  0  0  0  0  0  0  0
    0.7145   -2.0625    0.0000 C   0  0  0  0  0  0  0  0  0  0  0  0
    0.0000   -2.4750    0.0000 C   0  0  0  0  0  0  0  0  0  0  0  0
    0.7145   -1.2375    0.0000 N   0  0  0  0  0  0  0  0  0  0  0  0
    1.4289   -0.8250    0.0000 C   0  0  0  0  0  0  0  0  0  0  0  0
    1.4289   -0.0000    0.0000 O   0  0  0  0  0  0  0  0  0  0  0  0
    2.1434   -1.2375    0.0000 C   0  0  0  0  0  0  0  0  0  0  0  0
    2.8579   -0.8250    0.0000 Cl  0  0  0  0  0  0  0  0  0  0  0  0
    0.0000   -0.8250    0.0000 C   0  0  0  0  0  0  0  0  0  0  0  0
   -0.7145   -1.2375    0.0000 C   0  0  0  0  0  0  0  0  0  0  0  0
   -1.4289   -0.8250    0.0000 C   0  0  0  0  0  0  0  0  0  0  0  0
   -1.4289    0.0000    0.0000 C   0  0  0  0  0  0  0  0  0  0  0  0
   -0.7145    0.4125    0.0000 C   0  0  0  0  0  0  0  0  0  0  0  0
    0.0000   -0.0000    0.0000 C   0  0  0  0  0  0  0  0  0  0  0  0
  1  2  1  0  0  0  0
  2  3  1  0  0  0  0
  2  4  1  0  0  0  0
  4  5  1  0  0  0  0
  5  6  2  0  0  0  0
  5  7  1  0  0  0  0
  7  8  1  0  0  0  0
  4  9  1  0  0  0  0
  9 10  4  0  0  0  0
 10 11  4  0  0  0  0
 11 12  4  0  0  0  0
 12 13  4  0  0  0  0
 13 14  4  0  0  0  0
  9 14  4  0  0  0  0
M  END
> <activity>
13.39382036

> <InChiKey>
MFOUDYKPLGXPGO-UHFFFAOYSA-N

$$$$

  Mrv2220 08292413012D          

 27 28  0  0  0  0            999 V2000
   -1.4289   -0.8250    0.0000 C   0  0  0  0  0  0  0  0  0  0  0  0
   -0.7145   -1.2375    0.0000 C   0  0  0  0  0  0  0  0  0  0  0  0
   -0.7145   -2.0625    0.0000 C   0  0  0  0  0  0  0  0  0  0  0  0
    0.0000   -2.4750    0.0000 O   0  0  0  0  0  0  0  0  0  0  0  0
    0.0000   -3.3000    0.0000 C   0  0  0  0  0  0  0  0  0  0  0  0
    0.6674   -3.7849    0.0000 N   0  0  0  0  0  0  0  0  0  0  0  0
    0.4125   -4.5695    0.0000 N   0  0  0  0  0  0  0  0  0  0  0  0
    0.8974   -5.2370    0.0000 C   0  0  0  0  0  0  0  0  0  0  0  0
    1.7179   -5.1507    0.0000 O   0  0  0  0  0  0  0  0  0  0  0  0
    0.5619   -5.9907    0.0000 N   0  0  0  0  0  0  0  0  0  0  0  0
    1.0468   -6.6581    0.0000 S   0  0  0  0  0  0  0  0  0  0  0  0
    0.3793   -7.1430    0.0000 O   0  0  0  0  0  0  0  0  0  0  0  0
    1.7142   -6.1732    0.0000 O   0  0  0  0  0  0  0  0  0  0  0  0
    1.5317   -7.3255    0.0000 C   0  0  0  0  0  0  0  0  0  0  0  0
    2.3522   -7.2393    0.0000 C   0  0  0  0  0  0  0  0  0  0  0  0
    2.8371   -7.9067    0.0000 C   0  0  0  0  0  0  0  0  0  0  0  0
    2.5016   -8.6604    0.0000 C   0  0  0  0  0  0  0  0  0  0  0  0
    1.6811   -8.7467    0.0000 C   0  0  0  0  0  0  0  0  0  0  0  0
    1.1962   -8.0792    0.0000 C   0  0  0  0  0  0  0  0  0  0  0  0
    0.3757   -8.1654    0.0000 C   0  0  0  0  0  0  0  0  0  0  0  0
   -0.1093   -7.4980    0.0000 O   0  0  0  0  0  0  0  0  0  0  0  0
    0.0401   -8.9191    0.0000 O   0  0  0  0  0  0  0  0  0  0  0  0
    0.5250   -9.5866    0.0000 C   0  0  0  0  0  0  0  0  0  0  0  0
   -0.4125   -4.5695    0.0000 C   0  0  0  0  0  0  0  0  0  0  0  0
   -0.8974   -5.2370    0.0000 O   0  0  0  0  0  0  0  0  0  0  0  0
   -0.6674   -3.7849    0.0000 N   0  0  0  0  0  0  0  0  0  0  0  0
   -1.4521   -3.5300    0.0000 C   0  0  0  0  0  0  0  0  0  0  0  0
  1  2  1  0  0  0  0
  2  3  1  0  0  0  0
  3  4  1  0  0  0  0
  4  5  1  0  0  0  0
  5  6  4  0  0  0  0
  6  7  4  0  0  0  0
  7  8  1  0  0  0  0
  8  9  2  0  0  0  0
  8 10  1  0  0  0  0
 10 11  1  0  0  0  0
 11 12  2  0  0  0  0
 11 13  2  0  0  0  0
 11 14  1  0  0  0  0
 14 15  4  0  0  0  0
 15 16  4  0  0  0  0
 16 17  4  0  0  0  0
 17 18  4  0  0  0  0
 18 19  4  0  0  0  0
 14 19  4  0  0  0  0
 19 20  1  0  0  0  0
 20 21  2  0  0  0  0
 20 22  1  0  0  0  0
 22 23  1  0  0  0  0
  7 24  4  0  0  0  0
 24 25  2  0  0  0  0
 24 26  4  0  0  0  0
  5 26  4  0  0  0  0
 26 27  1  0  0  0  0
M  END
> <activity>
52.288918

> <InChiKey>
JTHMVYBOQLDDIY-UHFFFAOYSA-N

$$$$

  Mrv2220 08292413012D          

 12 12  0  0  0  0            999 V2000
    0.7145    2.0625    0.0000 C   0  0  0  0  0  0  0  0  0  0  0  0
    0.7145    1.2375    0.0000 C   0  0  0  0  0  0  0  0  0  0  0  0
    1.4289    0.8250    0.0000 N   0  0  0  0  0  0  0  0  0  0  0  0
    1.4289   -0.0000    0.0000 C   0  0  0  0  0  0  0  0  0  0  0  0
    0.7145   -0.4125    0.0000 C   0  0  0  0  0  0  0  0  0  0  0  0
    0.7145   -1.2375    0.0000 C   0  0  0  0  0  0  0  0  0  0  0  0
    1.4289   -1.6500    0.0000 O   0  0  0  0  0  0  0  0  0  0  0  0
    0.0000    0.0000    0.0000 C   0  0  0  0  0  0  0  0  0  0  0  0
   -0.7145   -0.4125    0.0000 C   0  0  0  0  0  0  0  0  0  0  0  0
   -1.4289    0.0000    0.0000 O   0  0  0  0  0  0  0  0  0  0  0  0
    0.0000    0.8250    0.0000 C   0  0  0  0  0  0  0  0  0  0  0  0
   -0.7145    1.2375    0.0000 O   0  0  0  0  0  0  0  0  0  0  0  0
  1  2  1  0  0  0  0
  2  3  4  0  0  0  0
  3  4  4  0  0  0  0
  4  5  4  0  0  0  0
  5  6  1  0  0  0  0
  6  7  1  0  0  0  0
  5  8  4  0  0  0  0
  8  9  1  0  0  0  0
  9 10  1  0  0  0  0
  8 11  4  0  0  0  0
  2 11  4  0  0  0  0
 11 12  1  0  0  0  0
M  END
> <activity>
-2.283661556

> <InChiKey>
LXNHXLLTXMVWPM-UHFFFAOYSA-N

$$$$

  Mrv2220 08292413012D          

 12 13  0  0  0  0            999 V2000
    5.4957    2.3479    0.0000 C   0  0  0  0  0  0  0  0  0  0  0  0
    4.7812    1.9354    0.0000 C   0  0  0  0  0  0  0  0  0  0  0  0
    4.0668    2.3479    0.0000 C   0  0  0  0  0  0  0  0  0  0  0  0
    3.3523    1.9354    0.0000 C   0  0  0  0  0  0  0  0  0  0  0  0
    3.3523    1.1104    0.0000 C   0  0  0  0  0  0  0  0  0  0  0  0
    2.6378    0.6979    0.0000 C   0  0  0  0  0  0  0  0  0  0  0  0
    1.9233    1.1104    0.0000 C   0  0  0  0  0  0  0  0  0  0  0  0
    1.9233    1.9354    0.0000 C   0  0  0  0  0  0  0  0  0  0  0  0
    2.6378    2.3479    0.0000 C   0  0  0  0  0  0  0  0  0  0  0  0
    1.1387    2.1904    0.0000 O   0  0  0  0  0  0  0  0  0  0  0  0
    0.6538    1.5229    0.0000 C   0  0  0  0  0  0  0  0  0  0  0  0
    1.1387    0.8555    0.0000 O   0  0  0  0  0  0  0  0  0  0  0  0
  1  2  2  0  0  0  0
  2  3  1  0  0  0  0
  3  4  1  0  0  0  0
  4  5  4  0  0  0  0
  5  6  4  0  0  0  0
  6  7  4  0  0  0  0
  7  8  4  0  0  0  0
  8  9  4  0  0  0  0
  4  9  4  0  0  0  0
  8 10  1  0  0  0  0
 10 11  1  0  0  0  0
 11 12  1  0  0  0  0
  7 12  1  0  0  0  0
M  END
> <activity>
26.10752688

> <InChiKey>
ZMQAAUBTXCXRIC-UHFFFAOYSA-N

$$$$

  Mrv2220 08292413012D          

 13 13  0  0  0  0            999 V2000
    1.4289    3.3000    0.0000 C   0  0  0  0  0  0  0  0  0  0  0  0
    1.4289    2.4750    0.0000 C   0  0  0  0  0  0  0  0  0  0  0  0
    0.7145    2.0625    0.0000 N   0  0  0  0  0  0  0  0  0  0  0  0
    0.7145    1.2375    0.0000 C   0  0  0  0  0  0  0  0  0  0  0  0
    1.4289    0.8250    0.0000 N   0  0  0  0  0  0  0  0  0  0  0  0
    1.4289   -0.0000    0.0000 C   0  0  0  0  0  0  0  0  0  0  0  0
    2.1434   -0.4125    0.0000 Cl  0  0  0  0  0  0  0  0  0  0  0  0
    0.7145   -0.4125    0.0000 N   0  0  0  0  0  0  0  0  0  0  0  0
    0.0000    0.0000    0.0000 C   0  0  0  0  0  0  0  0  0  0  0  0
   -0.7145   -0.4125    0.0000 N   0  0  0  0  0  0  0  0  0  0  0  0
   -1.4289    0.0000    0.0000 C   0  0  0  0  0  0  0  0  0  0  0  0
   -2.1434   -0.4125    0.0000 C   0  0  0  0  0  0  0  0  0  0  0  0
    0.0000    0.8250    0.0000 N   0  0  0  0  0  0  0  0  0  0  0  0
  1  2  1  0  0  0  0
  2  3  1  0  0  0  0
  3  4  1  0  0  0  0
  4  5  4  0  0  0  0
  5  6  4  0  0  0  0
  6  7  1  0  0  0  0
  6  8  4  0  0  0  0
  8  9  4  0  0  0  0
  9 10  1  0  0  0  0
 10 11  1  0  0  0  0
 11 12  1  0  0  0  0
  9 13  4  0  0  0  0
  4 13  4  0  0  0  0
M  END
> <activity>
0.686404478

> <InChiKey>
ODCWYMIRDDJXKW-UHFFFAOYSA-N

$$$$

  Mrv2220 08292413012D          

 10 10  0  0  0  0            999 V2000
    0.0000    2.4750    0.0000 O   0  0  0  0  0  0  0  0  0  0  0  0
    0.7145    2.0625    0.0000 N   0  3  0  0  0  0  0  0  0  0  0  0
    1.4289    2.4750    0.0000 O   0  5  0  0  0  0  0  0  0  0  0  0
    0.7145    1.2375    0.0000 C   0  0  0  0  0  0  0  0  0  0  0  0
    1.4289    0.8250    0.0000 C   0  0  0  0  0  0  0  0  0  0  0  0
    1.4289   -0.0000    0.0000 C   0  0  0  0  0  0  0  0  0  0  0  0
    0.7145   -0.4125    0.0000 C   0  0  0  0  0  0  0  0  0  0  0  0
    0.7145   -1.2375    0.0000 O   0  0  0  0  0  0  0  0  0  0  0  0
    0.0000    0.0000    0.0000 C   0  0  0  0  0  0  0  0  0  0  0  0
    0.0000    0.8250    0.0000 C   0  0  0  0  0  0  0  0  0  0  0  0
  1  2  2  0  0  0  0
  2  3  1  0  0  0  0
  2  4  1  0  0  0  0
  4  5  4  0  0  0  0
  5  6  4  0  0  0  0
  6  7  4  0  0  0  0
  7  8  1  0  0  0  0
  7  9  4  0  0  0  0
  9 10  4  0  0  0  0
  4 10  4  0  0  0  0
M  CHG  2   2   1   3  -1
M  END
> <activity>
97.1758665

> <InChiKey>
BTJIUGUIPKRLHP-UHFFFAOYSA-N

$$$$

  Mrv2220 08292413012D          

 14 13  0  0  0  0            999 V2000
    2.9980    2.5559    0.0000 C   0  0  0  0  0  0  0  0  0  0  0  0
    3.7125    2.1434    0.0000 C   0  0  0  0  0  0  0  0  0  0  0  0
    4.4270    2.5559    0.0000 C   0  0  0  0  0  0  0  0  0  0  0  0
    5.1414    2.1434    0.0000 C   0  0  0  0  0  0  0  0  0  0  0  0
    5.8559    2.5559    0.0000 C   0  0  0  0  0  0  0  0  0  0  0  0
    6.5704    2.1434    0.0000 C   0  0  0  0  0  0  0  0  0  0  0  0
    7.2849    2.5559    0.0000 C   0  0  0  0  0  0  0  0  0  0  0  0
    7.9993    2.1434    0.0000 C   0  0  0  0  0  0  0  0  0  0  0  0
    8.7138    2.5559    0.0000 C   0  0  0  0  0  0  0  0  0  0  0  0
    9.4283    2.1434    0.0000 O   0  0  0  0  0  0  0  0  0  0  0  0
   10.1427    2.5559    0.0000 S   0  0  0  0  0  0  0  0  0  0  0  0
   10.8572    2.9684    0.0000 O   0  0  0  0  0  0  0  0  0  0  0  0
   10.5552    1.8414    0.0000 O   0  0  0  0  0  0  0  0  0  0  0  0
    9.7302    3.2704    0.0000 O   0  0  0  0  0  0  0  0  0  0  0  0
  1  2  1  0  0  0  0
  2  3  1  0  0  0  0
  3  4  1  0  0  0  0
  4  5  1  0  0  0  0
  5  6  1  0  0  0  0
  6  7  1  0  0  0  0
  7  8  1  0  0  0  0
  8  9  1  0  0  0  0
  9 10  1  0  0  0  0
 10 11  1  0  0  0  0
 11 12  2  0  0  0  0
 11 13  2  0  0  0  0
 11 14  1  0  0  0  0
M  END
> <activity>
94.58724751

> <InChiKey>
KETHQOOVMIVLCH-UHFFFAOYSA-N

$$$$

  Mrv2220 08292413012D          

 30 30  0  0  0  0            999 V2000
   -4.0183   -1.8406    0.0000 C   0  0  0  0  0  0  0  0  0  0  0  0
   -4.0183   -2.6656    0.0000 C   0  0  0  0  0  0  0  0  0  0  0  0
   -3.3038   -3.0781    0.0000 C   0  0  0  0  0  0  0  0  0  0  0  0
   -3.3038   -3.9031    0.0000 C   0  0  0  0  0  0  0  0  0  0  0  0
   -2.5893   -4.3156    0.0000 C   0  0  0  0  0  0  0  0  0  0  0  0
   -2.5893   -5.1406    0.0000 C   0  0  0  0  0  0  0  0  0  0  0  0
   -1.8748   -5.5531    0.0000 C   0  0  0  0  0  0  0  0  0  0  0  0
   -1.8748   -6.3781    0.0000 C   0  0  0  0  0  0  0  0  0  0  0  0
   -1.1604   -6.7906    0.0000 C   0  0  0  0  0  0  0  0  0  0  0  0
   -1.1604   -7.6156    0.0000 C   0  0  0  0  0  0  0  0  0  0  0  0
   -0.4459   -8.0281    0.0000 C   0  0  0  0  0  0  0  0  0  0  0  0
    0.2686   -7.6156    0.0000 C   0  0  0  0  0  0  0  0  0  0  0  0
    0.9830   -8.0281    0.0000 C   0  0  0  0  0  0  0  0  0  0  0  0
    1.6975   -7.6156    0.0000 C   0  0  0  0  0  0  0  0  0  0  0  0
    2.4120   -8.0281    0.0000 C   0  0  0  0  0  0  0  0  0  0  0  0
    3.1264   -7.6156    0.0000 C   0  0  0  0  0  0  0  0  0  0  0  0
    3.8409   -8.0281    0.0000 C   0  0  0  0  0  0  0  0  0  0  0  0
    4.5554   -7.6156    0.0000 C   0  0  0  0  0  0  0  0  0  0  0  0
    4.5554   -6.7906    0.0000 O   0  0  0  0  0  0  0  0  0  0  0  0
    5.2699   -8.0281    0.0000 O   0  0  0  0  0  0  0  0  0  0  0  0
    5.9843   -7.6156    0.0000 C   0  0  0  0  0  0  0  0  0  0  0  0
    6.6988   -8.0281    0.0000 C   0  0  0  0  0  0  0  0  0  0  0  0
    6.6988   -8.8531    0.0000 O   0  0  0  0  0  0  0  0  0  0  0  0
    7.4133   -7.6156    0.0000 C   0  0  0  0  0  0  0  0  0  0  0  0
    7.4995   -6.7952    0.0000 O   0  0  0  0  0  0  0  0  0  0  0  0
    8.3065   -6.6236    0.0000 C   0  0  0  0  0  0  0  0  0  0  0  0
    8.7190   -7.3381    0.0000 C   0  0  0  0  0  0  0  0  0  0  0  0
    9.5395   -7.4243    0.0000 O   0  0  0  0  0  0  0  0  0  0  0  0
    8.1669   -7.9512    0.0000 C   0  0  0  0  0  0  0  0  0  0  0  0
    8.3385   -8.7582    0.0000 O   0  0  0  0  0  0  0  0  0  0  0  0
  1  2  1  0  0  0  0
  2  3  1  0  0  0  0
  3  4  1  0  0  0  0
  4  5  1  0  0  0  0
  5  6  1  0  0  0  0
  6  7  1  0  0  0  0
  7  8  1  0  0  0  0
  9  8  1  4  0  0  0
  9 10  2  0  0  0  0
 10 11  1  0  0  0  0
 11 12  1  0  0  0  0
 12 13  1  0  0  0  0
 13 14  1  0  0  0  0
 14 15  1  0  0  0  0
 15 16  1  0  0  0  0
 16 17  1  0  0  0  0
 17 18  1  0  0  0  0
 18 19  2  0  0  0  0
 18 20  1  0  0  0  0
 20 21  1  0  0  0  0
 21 22  1  0  0  0  0
 22 23  1  0  0  0  0
 22 24  1  0  0  0  0
 24 25  1  0  0  0  0
 25 26  1  0  0  0  0
 26 27  1  0  0  0  0
 27 28  1  0  0  0  0
 27 29  1  0  0  0  0
 24 29  1  0  0  0  0
 29 30  1  0  0  0  0
M  END
> <activity>
55.54733467

> <InChiKey>
NWGKJDSIEKMTRX-UHFFFAOYSA-N

$$$$

  Mrv2220 08292413012D          

 27 29  0  0  0  0            999 V2000
   -2.6698    2.7647    0.0000 C   0  0  0  0  0  0  0  0  0  0  0  0
   -2.0023    2.2798    0.0000 C   0  0  0  0  0  0  0  0  0  0  0  0
   -1.2486    2.6153    0.0000 C   0  0  0  0  0  0  0  0  0  0  0  0
   -0.5812    2.1304    0.0000 C   0  0  0  0  0  0  0  0  0  0  0  0
    0.1725    2.4660    0.0000 C   0  0  0  0  0  0  0  0  0  0  0  0
   -0.6674    1.3099    0.0000 C   0  0  0  0  0  0  0  0  0  0  0  0
    0.0000    0.8250    0.0000 C   0  0  0  0  0  0  0  0  0  0  0  0
    0.7846    1.0799    0.0000 C   0  0  0  0  0  0  0  0  0  0  0  0
    1.0396    1.8646    0.0000 O   0  0  0  0  0  0  0  0  0  0  0  0
    1.8465    2.0361    0.0000 C   0  0  0  0  0  0  0  0  0  0  0  0
    2.3986    1.4230    0.0000 O   0  0  0  0  0  0  0  0  0  0  0  0
    2.1015    2.8207    0.0000 C   0  0  0  0  0  0  0  0  0  0  0  0
    1.5494    3.4338    0.0000 C   0  0  0  0  0  0  0  0  0  0  0  0
    0.9974    4.0469    0.0000 C   0  0  0  0  0  0  0  0  0  0  0  0
    2.1625    3.9858    0.0000 C   0  0  0  0  0  0  0  0  0  0  0  0
    0.9363    2.8818    0.0000 C   0  0  0  0  0  0  0  0  0  0  0  0
    1.2695    0.4125    0.0000 C   0  0  0  0  0  0  0  0  0  0  0  0
    1.7545    1.0799    0.0000 C   0  0  0  0  0  0  0  0  0  0  0  0
    2.5391    0.8250    0.0000 C   0  0  0  0  0  0  0  0  0  0  0  0
    2.5391    0.0000    0.0000 C   0  0  0  0  0  0  0  0  0  0  0  0
    1.7545   -0.2549    0.0000 C   0  0  0  0  0  0  0  0  0  0  0  0
    0.7846   -0.2549    0.0000 O   0  0  0  0  0  0  0  0  0  0  0  0
   -0.0000    0.0000    0.0000 C   0  0  0  0  0  0  0  0  0  0  0  0
   -0.6674   -0.4849    0.0000 O   0  0  0  0  0  0  0  0  0  0  0  0
   -1.4211    0.9744    0.0000 C   0  0  0  0  0  0  0  0  0  0  0  0
   -1.5074    0.1539    0.0000 C   0  0  0  0  0  0  0  0  0  0  0  0
   -2.0886    1.4593    0.0000 C   0  0  0  0  0  0  0  0  0  0  0  0
  1  2  1  0  0  0  0
  2  3  4  0  0  0  0
  3  4  4  0  0  0  0
  4  5  1  0  0  0  0
  4  6  4  0  0  0  0
  6  7  1  0  0  0  0
  7  8  2  0  0  0  0
  8  9  1  0  0  0  0
  9 10  1  0  0  0  0
 10 11  2  0  0  0  0
 10 12  1  0  0  0  0
 12 13  1  0  0  0  0
 13 14  1  0  0  0  0
 13 15  1  0  0  0  0
 13 16  1  0  0  0  0
  8 17  1  0  0  0  0
 17 18  1  0  0  0  0
 18 19  1  0  0  0  0
 19 20  1  0  0  0  0
 20 21  1  0  0  0  0
 17 21  1  0  0  0  0
 17 22  1  0  0  0  0
 22 23  1  0  0  0  0
  7 23  1  0  0  0  0
 23 24  2  0  0  0  0
  6 25  4  0  0  0  0
 25 26  1  0  0  0  0
 25 27  4  0  0  0  0
  2 27  4  0  0  0  0
M  END
> <activity>
51.05135721

> <InChiKey>
GOLXNESZZPUPJE-UHFFFAOYSA-N

$$$$

  Mrv2220 08292413012D          

  9 10  0  0  0  0            999 V2000
    0.7145    5.4901    0.0000 C   0  0  0  0  0  0  0  0  0  0  0  0
    1.4289    5.0776    0.0000 C   0  0  0  0  0  0  0  0  0  0  0  0
    1.4289    4.2526    0.0000 C   0  0  0  0  0  0  0  0  0  0  0  0
    0.7145    3.8401    0.0000 C   0  0  0  0  0  0  0  0  0  0  0  0
    0.7145    3.0151    0.0000 C   0  0  0  0  0  0  0  0  0  0  0  0
    1.1270    2.3007    0.0000 C   0  0  0  0  0  0  0  0  0  0  0  0
    0.3020    2.3007    0.0000 O   0  0  0  0  0  0  0  0  0  0  0  0
    0.0000    4.2526    0.0000 C   0  0  0  0  0  0  0  0  0  0  0  0
    0.0000    5.0776    0.0000 C   0  0  0  0  0  0  0  0  0  0  0  0
  1  2  4  0  0  0  0
  2  3  4  0  0  0  0
  3  4  4  0  0  0  0
  4  5  1  0  0  0  0
  5  6  1  0  0  0  0
  6  7  1  0  0  0  0
  5  7  1  0  0  0  0
  4  8  4  0  0  0  0
  8  9  4  0  0  0  0
  1  9  4  0  0  0  0
M  END
> <activity>
18.24331466

> <InChiKey>
AWMVMTVKBNGEAK-UHFFFAOYSA-N

$$$$

  Mrv2220 08292413012D          

 28 30  0  0  0  0            999 V2000
    5.7158   -1.6500    0.0000 O   0  0  0  0  0  0  0  0  0  0  0  0
    6.4302   -2.0625    0.0000 C   0  0  0  0  0  0  0  0  0  0  0  0
    7.1447   -1.6500    0.0000 O   0  0  0  0  0  0  0  0  0  0  0  0
    6.4302   -2.8875    0.0000 C   0  0  0  0  0  0  0  0  0  0  0  0
    7.1447   -3.3000    0.0000 C   0  0  0  0  0  0  0  0  0  0  0  0
    7.1447   -4.1250    0.0000 C   0  0  0  0  0  0  0  0  0  0  0  0
    7.8592   -4.5375    0.0000 N   0  0  0  0  0  0  0  0  0  0  0  0
    8.5737   -4.1250    0.0000 N   0  0  0  0  0  0  0  0  0  0  0  0
    9.2881   -4.5375    0.0000 C   0  0  0  0  0  0  0  0  0  0  0  0
   10.0026   -4.1250    0.0000 C   0  0  0  0  0  0  0  0  0  0  0  0
   10.7171   -4.5375    0.0000 C   0  0  0  0  0  0  0  0  0  0  0  0
   10.7171   -5.3625    0.0000 C   0  0  0  0  0  0  0  0  0  0  0  0
   11.4315   -5.7750    0.0000 S   0  0  0  0  0  0  0  0  0  0  0  0
   11.0190   -6.4895    0.0000 O   0  0  0  0  0  0  0  0  0  0  0  0
   11.8440   -5.0605    0.0000 O   0  0  0  0  0  0  0  0  0  0  0  0
   12.1460   -6.1875    0.0000 N   0  0  0  0  0  0  0  0  0  0  0  0
   12.1460   -7.0125    0.0000 C   0  0  0  0  0  0  0  0  0  0  0  0
   12.8605   -7.4250    0.0000 C   0  0  0  0  0  0  0  0  0  0  0  0
   12.8605   -8.2500    0.0000 C   0  0  0  0  0  0  0  0  0  0  0  0
   12.1460   -8.6625    0.0000 C   0  0  0  0  0  0  0  0  0  0  0  0
   11.4315   -8.2500    0.0000 C   0  0  0  0  0  0  0  0  0  0  0  0
   11.4315   -7.4250    0.0000 N   0  0  0  0  0  0  0  0  0  0  0  0
   10.0026   -5.7750    0.0000 C   0  0  0  0  0  0  0  0  0  0  0  0
    9.2881   -5.3625    0.0000 C   0  0  0  0  0  0  0  0  0  0  0  0
    6.4302   -4.5375    0.0000 C   0  0  0  0  0  0  0  0  0  0  0  0
    5.7158   -4.1250    0.0000 C   0  0  0  0  0  0  0  0  0  0  0  0
    5.7158   -3.3000    0.0000 C   0  0  0  0  0  0  0  0  0  0  0  0
    5.0013   -2.8875    0.0000 O   0  0  0  0  0  0  0  0  0  0  0  0
  1  2  2  0  0  0  0
  2  3  1  0  0  0  0
  2  4  1  0  0  0  0
  4  5  4  0  0  0  0
  5  6  4  0  0  0  0
  7  6  1  4  0  0  0
  7  8  2  0  0  0  0
  8  9  1  0  0  0  0
  9 10  4  0  0  0  0
 10 11  4  0  0  0  0
 11 12  4  0  0  0  0
 12 13  1  0  0  0  0
 13 14  2  0  0  0  0
 13 15  2  0  0  0  0
 13 16  1  0  0  0  0
 16 17  1  0  0  0  0
 17 18  4  0  0  0  0
 18 19  4  0  0  0  0
 19 20  4  0  0  0  0
 20 21  4  0  0  0  0
 21 22  4  0  0  0  0
 17 22  4  0  0  0  0
 12 23  4  0  0  0  0
 23 24  4  0  0  0  0
  9 24  4  0  0  0  0
  6 25  4  0  0  0  0
 25 26  4  0  0  0  0
 26 27  4  0  0  0  0
  4 27  4  0  0  0  0
 27 28  1  0  0  0  0
M  END
> <activity>
109.3334172

> <InChiKey>
NCEXYHBECQHGNR-UHFFFAOYSA-N

$$$$

  Mrv2220 08292413012D          

 23 24  0  0  0  0            999 V2000
    0.7145   -0.4125    0.0000 C   0  0  0  0  0  0  0  0  0  0  0  0
    0.7145   -1.2375    0.0000 C   0  0  0  0  0  0  0  0  0  0  0  0
    1.3819   -1.7224    0.0000 N   0  0  0  0  0  0  0  0  0  0  0  0
    1.1270   -2.5070    0.0000 N   0  0  0  0  0  0  0  0  0  0  0  0
    1.6119   -3.1745    0.0000 C   0  0  0  0  0  0  0  0  0  0  0  0
    2.4324   -3.0882    0.0000 C   0  0  0  0  0  0  0  0  0  0  0  0
    2.9173   -3.7557    0.0000 C   0  0  0  0  0  0  0  0  0  0  0  0
    3.7378   -3.6695    0.0000 N   0  0  0  0  0  0  0  0  0  0  0  0
    4.2227   -4.3369    0.0000 S   0  0  0  0  0  0  0  0  0  0  0  0
    4.7076   -5.0043    0.0000 C   0  0  0  0  0  0  0  0  0  0  0  0
    4.8901   -3.8520    0.0000 O   0  0  0  0  0  0  0  0  0  0  0  0
    3.5553   -4.8218    0.0000 O   0  0  0  0  0  0  0  0  0  0  0  0
    2.5817   -4.5094    0.0000 C   0  0  0  0  0  0  0  0  0  0  0  0
    3.0667   -5.1768    0.0000 Cl  0  0  0  0  0  0  0  0  0  0  0  0
    1.7613   -4.5956    0.0000 C   0  0  0  0  0  0  0  0  0  0  0  0
    1.2763   -3.9282    0.0000 C   0  0  0  0  0  0  0  0  0  0  0  0
    0.4559   -4.0144    0.0000 Cl  0  0  0  0  0  0  0  0  0  0  0  0
    0.3020   -2.5070    0.0000 C   0  0  0  0  0  0  0  0  0  0  0  0
   -0.1830   -3.1745    0.0000 O   0  0  0  0  0  0  0  0  0  0  0  0
    0.0470   -1.7224    0.0000 N   0  0  0  0  0  0  0  0  0  0  0  0
   -0.7376   -1.4675    0.0000 C   0  0  0  0  0  0  0  0  0  0  0  0
   -1.3507   -2.0195    0.0000 F   0  0  0  0  0  0  0  0  0  0  0  0
   -0.9091   -0.6605    0.0000 F   0  0  0  0  0  0  0  0  0  0  0  0
  1  2  1  0  0  0  0
  2  3  4  0  0  0  0
  3  4  4  0  0  0  0
  4  5  1  0  0  0  0
  5  6  4  0  0  0  0
  6  7  4  0  0  0  0
  7  8  1  0  0  0  0
  8  9  1  0  0  0  0
  9 10  1  0  0  0  0
  9 11  2  0  0  0  0
  9 12  2  0  0  0  0
  7 13  4  0  0  0  0
 13 14  1  0  0  0  0
 13 15  4  0  0  0  0
 15 16  4  0  0  0  0
  5 16  4  0  0  0  0
 16 17  1  0  0  0  0
  4 18  4  0  0  0  0
 18 19  2  0  0  0  0
 18 20  4  0  0  0  0
  2 20  4  0  0  0  0
 20 21  1  0  0  0  0
 21 22  1  0  0  0  0
 21 23  1  0  0  0  0
M  END
> <activity>
79.39662771

> <InChiKey>
OORLZFUTLGXMEF-UHFFFAOYSA-N

$$$$

  Mrv2220 08292413012D          

 20 20  0  0  0  0            999 V2000
   -1.4289    4.1250    0.0000 C   0  0  0  0  0  0  0  0  0  0  0  0
   -0.7145    3.7125    0.0000 C   0  0  0  0  0  0  0  0  0  0  0  0
   -0.7145    2.8875    0.0000 O   0  0  0  0  0  0  0  0  0  0  0  0
    0.0000    2.4750    0.0000 P   0  0  0  0  0  0  0  0  0  0  0  0
   -0.4125    1.7605    0.0000 S   0  0  0  0  0  0  0  0  0  0  0  0
    0.7145    2.0625    0.0000 O   0  0  0  0  0  0  0  0  0  0  0  0
    0.7145    1.2375    0.0000 C   0  0  0  0  0  0  0  0  0  0  0  0
    1.4289    0.8250    0.0000 C   0  0  0  0  0  0  0  0  0  0  0  0
    1.4289   -0.0000    0.0000 N   0  0  0  0  0  0  0  0  0  0  0  0
    0.7145   -0.4125    0.0000 C   0  0  0  0  0  0  0  0  0  0  0  0
    0.7145   -1.2375    0.0000 C   0  0  0  0  0  0  0  0  0  0  0  0
    0.7145   -2.0625    0.0000 C   0  0  0  0  0  0  0  0  0  0  0  0
   -0.1105   -1.2375    0.0000 C   0  0  0  0  0  0  0  0  0  0  0  0
    1.5395   -1.2375    0.0000 C   0  0  0  0  0  0  0  0  0  0  0  0
    0.0000    0.0000    0.0000 N   0  0  0  0  0  0  0  0  0  0  0  0
    0.0000    0.8250    0.0000 C   0  0  0  0  0  0  0  0  0  0  0  0
    0.4125    3.1895    0.0000 O   0  0  0  0  0  0  0  0  0  0  0  0
    1.2375    3.1895    0.0000 C   0  0  0  0  0  0  0  0  0  0  0  0
    1.6500    2.4750    0.0000 C   0  0  0  0  0  0  0  0  0  0  0  0
    1.6500    3.9039    0.0000 C   0  0  0  0  0  0  0  0  0  0  0  0
  1  2  1  0  0  0  0
  2  3  1  0  0  0  0
  3  4  1  0  0  0  0
  4  5  2  0  0  0  0
  4  6  1  0  0  0  0
  6  7  1  0  0  0  0
  7  8  4  0  0  0  0
  8  9  4  0  0  0  0
  9 10  4  0  0  0  0
 10 11  1  0  0  0  0
 11 12  1  0  0  0  0
 11 13  1  0  0  0  0
 11 14  1  0  0  0  0
 10 15  4  0  0  0  0
 15 16  4  0  0  0  0
  7 16  4  0  0  0  0
  4 17  1  0  0  0  0
 17 18  1  0  0  0  0
 18 19  1  0  0  0  0
 18 20  1  0  0  0  0
M  END
> <activity>
46.68704712

> <InChiKey>
AWYOMXWDGWUJHS-UHFFFAOYSA-N

$$$$

  Mrv2220 08292413012D          

 27 28  0  0  0  0            999 V2000
    7.9697    4.9500    0.0000 C   0  0  0  0  0  0  0  0  0  0  0  0
    7.2552    4.5375    0.0000 C   0  0  0  0  0  0  0  0  0  0  0  0
    7.2552    3.7125    0.0000 C   0  0  0  0  0  0  0  0  0  0  0  0
    7.9697    3.3000    0.0000 F   0  0  0  0  0  0  0  0  0  0  0  0
    6.5408    3.3000    0.0000 C   0  0  0  0  0  0  0  0  0  0  0  0
    6.5408    2.4750    0.0000 F   0  0  0  0  0  0  0  0  0  0  0  0
    5.8263    3.7125    0.0000 C   0  0  0  0  0  0  0  0  0  0  0  0
    5.1118    3.3000    0.0000 C   0  0  0  0  0  0  0  0  0  0  0  0
    4.3974    3.7125    0.0000 O   0  0  0  0  0  0  0  0  0  0  0  0
    3.6829    3.3000    0.0000 C   0  0  0  0  0  0  0  0  0  0  0  0
    3.6829    2.4750    0.0000 O   0  0  0  0  0  0  0  0  0  0  0  0
    2.9684    3.7125    0.0000 C   0  0  0  0  0  0  0  0  0  0  0  0
    2.1434    3.7125    0.0000 C   0  0  0  0  0  0  0  0  0  0  0  0
    1.4289    3.3000    0.0000 C   0  0  0  0  0  0  0  0  0  0  0  0
    0.7145    3.7125    0.0000 C   0  0  0  0  0  0  0  0  0  0  0  0
    0.7145    4.5375    0.0000 Cl  0  0  0  0  0  0  0  0  0  0  0  0
    0.0000    3.3000    0.0000 C   0  0  0  0  0  0  0  0  0  0  0  0
   -0.7145    2.8875    0.0000 F   0  0  0  0  0  0  0  0  0  0  0  0
   -0.4125    4.0145    0.0000 F   0  0  0  0  0  0  0  0  0  0  0  0
    0.4125    2.5855    0.0000 F   0  0  0  0  0  0  0  0  0  0  0  0
    2.5559    4.4270    0.0000 C   0  0  0  0  0  0  0  0  0  0  0  0
    2.0827    5.1028    0.0000 C   0  0  0  0  0  0  0  0  0  0  0  0
    3.0291    5.1028    0.0000 C   0  0  0  0  0  0  0  0  0  0  0  0
    5.8263    4.5375    0.0000 C   0  0  0  0  0  0  0  0  0  0  0  0
    5.1118    4.9500    0.0000 F   0  0  0  0  0  0  0  0  0  0  0  0
    6.5408    4.9500    0.0000 C   0  0  0  0  0  0  0  0  0  0  0  0
    6.5408    5.7750    0.0000 F   0  0  0  0  0  0  0  0  0  0  0  0
  1  2  1  0  0  0  0
  2  3  4  0  0  0  0
  3  4  1  0  0  0  0
  3  5  4  0  0  0  0
  5  6  1  0  0  0  0
  5  7  4  0  0  0  0
  7  8  1  0  0  0  0
  8  9  1  0  0  0  0
  9 10  1  0  0  0  0
 10 11  2  0  0  0  0
 10 12  1  0  0  0  0
 12 13  1  0  0  0  0
 14 13  1  4  0  0  0
 14 15  2  0  0  0  0
 15 16  1  0  0  0  0
 15 17  1  0  0  0  0
 17 18  1  0  0  0  0
 17 19  1  0  0  0  0
 17 20  1  0  0  0  0
 13 21  1  0  0  0  0
 12 21  1  0  0  0  0
 21 22  1  0  0  0  0
 21 23  1  0  0  0  0
  7 24  4  0  0  0  0
 24 25  1  0  0  0  0
 24 26  4  0  0  0  0
  2 26  4  0  0  0  0
 26 27  1  0  0  0  0
M  END
> <activity>
23.83603647

> <InChiKey>
ZFHGXWPMULPQSE-UHFFFAOYSA-N

$$$$

  Mrv2220 08292413012D          

  5  4  0  0  0  0            999 V2000
    2.0625   -0.7145    0.0000 O   0  0  0  0  0  0  0  0  0  0  0  0
    1.2375   -0.7145    0.0000 C   0  0  0  0  0  0  0  0  0  0  0  0
    0.8250   -1.4289    0.0000 O   0  0  0  0  0  0  0  0  0  0  0  0
    0.8250    0.0000    0.0000 C   0  0  0  0  0  0  0  0  0  0  0  0
    0.0000    0.0000    0.0000 S   0  0  0  0  0  0  0  0  0  0  0  0
  1  2  2  0  0  0  0
  2  3  1  0  0  0  0
  2  4  1  0  0  0  0
  4  5  1  0  0  0  0
M  END
> <activity>
9.517613766

> <InChiKey>
CWERGRDVMFNCDR-UHFFFAOYSA-N

$$$$

  Mrv2220 08292413012D          

  4  3  0  0  0  0            999 V2000
    1.2375    0.7145    0.0000 N   0  0  0  0  0  0  0  0  0  0  0  0
    0.8250    0.0000    0.0000 C   0  0  0  0  0  0  0  0  0  0  0  0
    1.2375   -0.7145    0.0000 N   0  0  0  0  0  0  0  0  0  0  0  0
    0.0000    0.0000    0.0000 S   0  0  0  0  0  0  0  0  0  0  0  0
  1  2  1  0  0  0  0
  2  3  1  0  0  0  0
  2  4  2  0  0  0  0
M  END
> <activity>
23.12943292

> <InChiKey>
UMGDCJDMYOKAJW-UHFFFAOYSA-N

$$$$

  Mrv2220 08292413012D          

 16 15  0  0  0  0            999 V2000
    4.5375    3.5724    0.0000 C   0  0  0  0  0  0  0  0  0  0  0  0
    3.7125    3.5724    0.0000 C   0  0  0  0  0  0  0  0  0  0  0  0
    3.3000    4.2868    0.0000 C   0  0  0  0  0  0  0  0  0  0  0  0
    3.3000    2.8579    0.0000 N   0  0  0  0  0  0  0  0  0  0  0  0
    2.4750    2.8579    0.0000 C   0  0  0  0  0  0  0  0  0  0  0  0
    2.0625    3.5724    0.0000 O   0  0  0  0  0  0  0  0  0  0  0  0
    2.0625    2.1434    0.0000 S   0  0  0  0  0  0  0  0  0  0  0  0
    1.2375    2.1434    0.0000 C   0  0  0  0  0  0  0  0  0  0  0  0
    0.8250    1.4289    0.0000 C   0  0  0  0  0  0  0  0  0  0  0  0
    1.2375    0.7145    0.0000 Cl  0  0  0  0  0  0  0  0  0  0  0  0
    0.0000    1.4289    0.0000 C   0  0  0  0  0  0  0  0  0  0  0  0
   -0.4125    0.7145    0.0000 Cl  0  0  0  0  0  0  0  0  0  0  0  0
   -0.4125    2.1434    0.0000 Cl  0  0  0  0  0  0  0  0  0  0  0  0
    3.7125    2.1434    0.0000 C   0  0  0  0  0  0  0  0  0  0  0  0
    4.5375    2.1434    0.0000 C   0  0  0  0  0  0  0  0  0  0  0  0
    3.3000    1.4289    0.0000 C   0  0  0  0  0  0  0  0  0  0  0  0
  1  2  1  0  0  0  0
  2  3  1  0  0  0  0
  2  4  1  0  0  0  0
  4  5  1  0  0  0  0
  5  6  2  0  0  0  0
  5  7  1  0  0  0  0
  7  8  1  0  0  0  0
  8  9  1  0  0  0  0
  9 10  1  0  0  0  0
  9 11  2  0  0  0  0
 11 12  1  0  0  0  0
 11 13  1  0  0  0  0
  4 14  1  0  0  0  0
 14 15  1  0  0  0  0
 14 16  1  0  0  0  0
M  END
> <activity>
46.64050726

> <InChiKey>
MWBPRDONLNQCFV-UHFFFAOYSA-N

$$$$

  Mrv2220 08292413012D          

 21 21  0  0  0  0            999 V2000
    2.1434   -6.1875    0.0000 C   0  0  0  0  0  0  0  0  0  0  0  0
    2.8579   -6.6000    0.0000 C   0  0  0  0  0  0  0  0  0  0  0  0
    3.5724   -6.1875    0.0000 C   0  0  0  0  0  0  0  0  0  0  0  0
    4.2868   -6.6000    0.0000 C   0  0  0  0  0  0  0  0  0  0  0  0
    5.0013   -6.1875    0.0000 O   0  0  0  0  0  0  0  0  0  0  0  0
    5.7158   -6.6000    0.0000 C   0  0  0  0  0  0  0  0  0  0  0  0
    6.4302   -6.1875    0.0000 C   0  0  0  0  0  0  0  0  0  0  0  0
    7.1447   -6.6000    0.0000 O   0  0  0  0  0  0  0  0  0  0  0  0
    7.8592   -6.1875    0.0000 C   0  0  0  0  0  0  0  0  0  0  0  0
    7.8592   -5.3625    0.0000 O   0  0  0  0  0  0  0  0  0  0  0  0
    8.5737   -6.6000    0.0000 C   0  0  0  0  0  0  0  0  0  0  0  0
    9.2881   -6.1875    0.0000 O   0  0  0  0  0  0  0  0  0  0  0  0
   10.0026   -6.6000    0.0000 C   0  0  0  0  0  0  0  0  0  0  0  0
   10.7171   -6.1875    0.0000 N   0  0  0  0  0  0  0  0  0  0  0  0
   11.4315   -6.6000    0.0000 C   0  0  0  0  0  0  0  0  0  0  0  0
   12.1460   -6.1875    0.0000 Cl  0  0  0  0  0  0  0  0  0  0  0  0
   11.4315   -7.4250    0.0000 C   0  0  0  0  0  0  0  0  0  0  0  0
   12.1460   -7.8375    0.0000 Cl  0  0  0  0  0  0  0  0  0  0  0  0
   10.7171   -7.8375    0.0000 C   0  0  0  0  0  0  0  0  0  0  0  0
   10.0026   -7.4250    0.0000 C   0  0  0  0  0  0  0  0  0  0  0  0
    9.2881   -7.8375    0.0000 Cl  0  0  0  0  0  0  0  0  0  0  0  0
  1  2  1  0  0  0  0
  2  3  1  0  0  0  0
  3  4  1  0  0  0  0
  4  5  1  0  0  0  0
  5  6  1  0  0  0  0
  6  7  1  0  0  0  0
  7  8  1  0  0  0  0
  8  9  1  0  0  0  0
  9 10  2  0  0  0  0
  9 11  1  0  0  0  0
 11 12  1  0  0  0  0
 12 13  1  0  0  0  0
 13 14  4  0  0  0  0
 14 15  4  0  0  0  0
 15 16  1  0  0  0  0
 15 17  4  0  0  0  0
 17 18  1  0  0  0  0
 17 19  4  0  0  0  0
 19 20  4  0  0  0  0
 13 20  4  0  0  0  0
 20 21  1  0  0  0  0
M  END
> <activity>
51.77982751

> <InChiKey>
IVDRCZNHVGQBHZ-UHFFFAOYSA-N

$$$$

  Mrv2220 08292413012D          

 11 10  0  0  0  0            999 V2000
    2.9684    1.8414    0.0000 C   0  0  0  0  0  0  0  0  0  0  0  0
    2.2539    1.4289    0.0000 C   0  0  0  0  0  0  0  0  0  0  0  0
    1.5395    1.8414    0.0000 O   0  0  0  0  0  0  0  0  0  0  0  0
    0.8250    1.4289    0.0000 Si  0  0  0  0  0  0  0  0  0  0  0  0
    0.4125    2.1434    0.0000 C   0  0  0  0  0  0  0  0  0  0  0  0
    0.1105    1.0164    0.0000 O   0  0  0  0  0  0  0  0  0  0  0  0
   -0.6039    1.4289    0.0000 C   0  0  0  0  0  0  0  0  0  0  0  0
   -1.3184    1.0164    0.0000 C   0  0  0  0  0  0  0  0  0  0  0  0
    1.2375    0.7145    0.0000 O   0  0  0  0  0  0  0  0  0  0  0  0
    0.8250    0.0000    0.0000 C   0  0  0  0  0  0  0  0  0  0  0  0
    0.0000    0.0000    0.0000 C   0  0  0  0  0  0  0  0  0  0  0  0
  1  2  1  0  0  0  0
  2  3  1  0  0  0  0
  3  4  1  0  0  0  0
  4  5  1  0  0  0  0
  4  6  1  0  0  0  0
  6  7  1  0  0  0  0
  7  8  1  0  0  0  0
  4  9  1  0  0  0  0
  9 10  1  0  0  0  0
 10 11  1  0  0  0  0
M  END
> <activity>
25.7819104

> <InChiKey>
CPUDPFPXCZDNGI-UHFFFAOYSA-N

$$$$

  Mrv2220 08292413012D          

 12 11  0  0  0  0            999 V2000
    3.5211    2.8579    0.0000 C   0  0  0  0  0  0  0  0  0  0  0  0
    4.2355    3.2704    0.0000 O   0  0  0  0  0  0  0  0  0  0  0  0
    4.9500    2.8579    0.0000 C   0  0  0  0  0  0  0  0  0  0  0  0
    5.6645    3.2704    0.0000 C   0  0  0  0  0  0  0  0  0  0  0  0
    6.3789    2.8579    0.0000 O   0  0  0  0  0  0  0  0  0  0  0  0
    7.0934    3.2704    0.0000 C   0  0  0  0  0  0  0  0  0  0  0  0
    7.8079    2.8579    0.0000 C   0  0  0  0  0  0  0  0  0  0  0  0
    8.5224    3.2704    0.0000 O   0  0  0  0  0  0  0  0  0  0  0  0
    9.2368    2.8579    0.0000 C   0  0  0  0  0  0  0  0  0  0  0  0
    9.9513    3.2704    0.0000 C   0  0  0  0  0  0  0  0  0  0  0  0
   10.6658    2.8579    0.0000 O   0  0  0  0  0  0  0  0  0  0  0  0
   11.3802    3.2704    0.0000 C   0  0  0  0  0  0  0  0  0  0  0  0
  1  2  1  0  0  0  0
  2  3  1  0  0  0  0
  3  4  1  0  0  0  0
  4  5  1  0  0  0  0
  5  6  1  0  0  0  0
  6  7  1  0  0  0  0
  7  8  1  0  0  0  0
  8  9  1  0  0  0  0
  9 10  1  0  0  0  0
 10 11  1  0  0  0  0
 11 12  1  0  0  0  0
M  END
> <activity>
1.544071021

> <InChiKey>
YFNKIDBQEZZDLK-UHFFFAOYSA-N

$$$$

  Mrv2220 08292413012D          

 14 15  0  0  0  0            999 V2000
    4.0668    3.1729    0.0000 O   0  0  0  0  0  0  0  0  0  0  0  0
    4.0668    2.3479    0.0000 C   0  0  0  0  0  0  0  0  0  0  0  0
    4.7812    1.9354    0.0000 O   0  0  0  0  0  0  0  0  0  0  0  0
    3.3523    1.9354    0.0000 C   0  0  0  0  0  0  0  0  0  0  0  0
    3.3523    1.1104    0.0000 C   0  0  0  0  0  0  0  0  0  0  0  0
    2.6378    0.6979    0.0000 C   0  0  0  0  0  0  0  0  0  0  0  0
    1.9233    1.1104    0.0000 C   0  0  0  0  0  0  0  0  0  0  0  0
    1.9233    1.9354    0.0000 C   0  0  0  0  0  0  0  0  0  0  0  0
    2.6378    2.3479    0.0000 C   0  0  0  0  0  0  0  0  0  0  0  0
    1.1387    2.1904    0.0000 C   0  0  0  0  0  0  0  0  0  0  0  0
    0.8838    2.9750    0.0000 O   0  0  0  0  0  0  0  0  0  0  0  0
    0.6538    1.5229    0.0000 O   0  0  0  0  0  0  0  0  0  0  0  0
    1.1387    0.8555    0.0000 C   0  0  0  0  0  0  0  0  0  0  0  0
    0.8838    0.0709    0.0000 O   0  0  0  0  0  0  0  0  0  0  0  0
  1  2  2  0  0  0  0
  2  3  1  0  0  0  0
  2  4  1  0  0  0  0
  4  5  4  0  0  0  0
  5  6  4  0  0  0  0
  6  7  4  0  0  0  0
  7  8  4  0  0  0  0
  8  9  4  0  0  0  0
  4  9  4  0  0  0  0
  8 10  1  0  0  0  0
 10 11  2  0  0  0  0
 10 12  1  0  0  0  0
 12 13  1  0  0  0  0
  7 13  1  0  0  0  0
 13 14  2  0  0  0  0
M  END
> <activity>
5.072413793

> <InChiKey>
SRPWOOOHEPICQU-UHFFFAOYSA-N

$$$$

  Mrv2220 08292413012D          

 39 39  0  0  0  0            999 V2000
    3.5724   -5.3625    0.0000 C   0  0  0  0  0  0  0  0  0  0  0  0
    2.8579   -4.9500    0.0000 C   0  0  0  0  0  0  0  0  0  0  0  0
    2.8579   -4.1250    0.0000 C   0  0  0  0  0  0  0  0  0  0  0  0
    2.1434   -3.7125    0.0000 C   0  0  0  0  0  0  0  0  0  0  0  0
    2.1434   -2.8875    0.0000 C   0  0  0  0  0  0  0  0  0  0  0  0
    2.8579   -2.4750    0.0000 C   0  0  0  0  0  0  0  0  0  0  0  0
    2.8579   -1.6500    0.0000 C   0  0  0  0  0  0  0  0  0  0  0  0
    1.4289   -2.4750    0.0000 C   0  0  0  0  0  0  0  0  0  0  0  0
    1.4289   -1.6500    0.0000 O   0  0  0  0  0  0  0  0  0  0  0  0
    0.7145   -1.2375    0.0000 C   0  0  0  0  0  0  0  0  0  0  0  0
    0.0000   -1.6500    0.0000 O   0  0  0  0  0  0  0  0  0  0  0  0
    0.7145   -0.4125    0.0000 C   0  0  0  0  0  0  0  0  0  0  0  0
   -0.0000    0.0000    0.0000 C   0  0  0  0  0  0  0  0  0  0  0  0
   -0.0000    0.8250    0.0000 C   0  0  0  0  0  0  0  0  0  0  0  0
    0.7145    1.2375    0.0000 C   0  0  0  0  0  0  0  0  0  0  0  0
    0.7145    2.0625    0.0000 C   0  0  0  0  0  0  0  0  0  0  0  0
    1.4289    2.4750    0.0000 O   0  0  0  0  0  0  0  0  0  0  0  0
    0.0000    2.4750    0.0000 O   0  0  0  0  0  0  0  0  0  0  0  0
    0.0000    3.3000    0.0000 C   0  0  0  0  0  0  0  0  0  0  0  0
   -0.7145    3.7125    0.0000 C   0  0  0  0  0  0  0  0  0  0  0  0
   -1.4289    3.3000    0.0000 C   0  0  0  0  0  0  0  0  0  0  0  0
   -2.1434    3.7125    0.0000 C   0  0  0  0  0  0  0  0  0  0  0  0
   -0.7145    4.5375    0.0000 C   0  0  0  0  0  0  0  0  0  0  0  0
   -1.4289    4.9500    0.0000 C   0  0  0  0  0  0  0  0  0  0  0  0
   -1.4289    5.7750    0.0000 C   0  0  0  0  0  0  0  0  0  0  0  0
   -2.1434    6.1875    0.0000 C   0  0  0  0  0  0  0  0  0  0  0  0
    1.4289    0.8250    0.0000 C   0  0  0  0  0  0  0  0  0  0  0  0
    2.1434    1.2375    0.0000 C   0  0  0  0  0  0  0  0  0  0  0  0
    2.1434    2.0625    0.0000 O   0  0  0  0  0  0  0  0  0  0  0  0
    2.8579    0.8250    0.0000 O   0  0  0  0  0  0  0  0  0  0  0  0
    3.5724    1.2375    0.0000 C   0  0  0  0  0  0  0  0  0  0  0  0
    4.2868    0.8250    0.0000 C   0  0  0  0  0  0  0  0  0  0  0  0
    4.2868    0.0000    0.0000 C   0  0  0  0  0  0  0  0  0  0  0  0
    5.0013   -0.4125    0.0000 C   0  0  0  0  0  0  0  0  0  0  0  0
    5.0013    1.2375    0.0000 C   0  0  0  0  0  0  0  0  0  0  0  0
    5.7158    0.8250    0.0000 C   0  0  0  0  0  0  0  0  0  0  0  0
    6.4302    1.2375    0.0000 C   0  0  0  0  0  0  0  0  0  0  0  0
    7.1447    0.8250    0.0000 C   0  0  0  0  0  0  0  0  0  0  0  0
    1.4289    0.0000    0.0000 C   0  0  0  0  0  0  0  0  0  0  0  0
  1  2  1  0  0  0  0
  2  3  1  0  0  0  0
  3  4  1  0  0  0  0
  4  5  1  0  0  0  0
  5  6  1  0  0  0  0
  6  7  1  0  0  0  0
  5  8  1  0  0  0  0
  8  9  1  0  0  0  0
  9 10  1  0  0  0  0
 10 11  2  0  0  0  0
 10 12  1  0  0  0  0
 12 13  4  0  0  0  0
 13 14  4  0  0  0  0
 14 15  4  0  0  0  0
 15 16  1  0  0  0  0
 16 17  2  0  0  0  0
 16 18  1  0  0  0  0
 18 19  1  0  0  0  0
 19 20  1  0  0  0  0
 20 21  1  0  0  0  0
 21 22  1  0  0  0  0
 20 23  1  0  0  0  0
 23 24  1  0  0  0  0
 24 25  1  0  0  0  0
 25 26  1  0  0  0  0
 15 27  4  0  0  0  0
 27 28  1  0  0  0  0
 28 29  2  0  0  0  0
 28 30  1  0  0  0  0
 30 31  1  0  0  0  0
 31 32  1  0  0  0  0
 32 33  1  0  0  0  0
 33 34  1  0  0  0  0
 32 35  1  0  0  0  0
 35 36  1  0  0  0  0
 36 37  1  0  0  0  0
 37 38  1  0  0  0  0
 27 39  4  0  0  0  0
 12 39  4  0  0  0  0
M  END
> <activity>
34.43591963

> <InChiKey>
KRADHMIOFJQKEZ-UHFFFAOYSA-N

$$$$

  Mrv2220 08292413012D          

 10  9  0  0  0  0            999 V2000
    1.7605    1.8414    0.0000 C   0  0  0  0  0  0  0  0  0  0  0  0
    2.4750    1.4289    0.0000 C   0  0  0  0  0  0  0  0  0  0  0  0
    3.1895    1.8414    0.0000 C   0  0  0  0  0  0  0  0  0  0  0  0
    3.9039    1.4289    0.0000 C   0  0  0  0  0  0  0  0  0  0  0  0
    4.6184    1.8414    0.0000 C   0  0  0  0  0  0  0  0  0  0  0  0
    5.3329    1.4289    0.0000 C   0  0  0  0  0  0  0  0  0  0  0  0
    6.0474    1.8414    0.0000 C   0  0  0  0  0  0  0  0  0  0  0  0
    3.9039    0.6039    0.0000 C   0  0  0  0  0  0  0  0  0  0  0  0
    4.6184    0.1914    0.0000 O   0  0  0  0  0  0  0  0  0  0  0  0
    3.1895    0.1914    0.0000 O   0  0  0  0  0  0  0  0  0  0  0  0
  1  2  1  0  0  0  0
  2  3  1  0  0  0  0
  3  4  1  0  0  0  0
  4  5  1  0  0  0  0
  5  6  1  0  0  0  0
  6  7  1  0  0  0  0
  4  8  1  0  0  0  0
  8  9  2  0  0  0  0
  8 10  1  0  0  0  0
M  END
> <activity>
5.521064942

> <InChiKey>
NIJJYAXOARWZEE-UHFFFAOYSA-N

$$$$

  Mrv2220 08292413012D          

 13 12  0  0  0  0            999 V2000
    2.9024    0.8704    0.0000 C   0  0  0  0  0  0  0  0  0  0  0  0
    3.7125    0.7145    0.0000 C   0  0  0  0  0  0  0  0  0  0  0  0
    4.2526    1.3381    0.0000 C   0  0  0  0  0  0  0  0  0  0  0  0
    5.0627    1.1822    0.0000 S   0  0  0  0  0  0  0  0  0  0  0  0
    5.6028    1.8058    0.0000 C   0  0  0  0  0  0  0  0  0  0  0  0
    5.3328    2.5854    0.0000 O   0  0  0  0  0  0  0  0  0  0  0  0
    6.4129    1.6499    0.0000 N   0  0  0  0  0  0  0  0  0  0  0  0
    6.9530    2.2736    0.0000 C   0  0  0  0  0  0  0  0  0  0  0  0
    7.7632    2.1177    0.0000 C   0  0  0  0  0  0  0  0  0  0  0  0
    8.3033    2.7413    0.0000 C   0  0  0  0  0  0  0  0  0  0  0  0
    6.6830    0.8704    0.0000 C   0  0  0  0  0  0  0  0  0  0  0  0
    7.4931    0.7145    0.0000 C   0  0  0  0  0  0  0  0  0  0  0  0
    7.7632   -0.0651    0.0000 C   0  0  0  0  0  0  0  0  0  0  0  0
  1  2  1  0  0  0  0
  2  3  1  0  0  0  0
  3  4  1  0  0  0  0
  4  5  1  0  0  0  0
  5  6  2  0  0  0  0
  5  7  1  0  0  0  0
  7  8  1  0  0  0  0
  8  9  1  0  0  0  0
  9 10  1  0  0  0  0
  7 11  1  0  0  0  0
 11 12  1  0  0  0  0
 12 13  1  0  0  0  0
M  END
> <activity>
10.38817246

> <InChiKey>
OKUGPJPKMAEJOE-UHFFFAOYSA-N

$$$$

  Mrv2220 08292413012D          

 45 50  0  0  0  0            999 V2000
    5.4691    6.2929    0.0000 C   0  0  0  0  0  0  0  0  0  0  0  0
    6.1897    5.8912    0.0000 C   0  0  0  0  0  0  0  0  0  0  0  0
    6.9383    6.2380    0.0000 O   0  0  0  0  0  0  0  0  0  0  0  0
    7.4994    5.6332    0.0000 C   0  0  0  0  0  0  0  0  0  0  0  0
    7.0976    4.9126    0.0000 C   0  0  0  0  0  0  0  0  0  0  0  0
    6.2882    5.0721    0.0000 C   0  0  0  0  0  0  0  0  0  0  0  0
    5.6834    4.5109    0.0000 C   0  0  0  0  0  0  0  0  0  0  0  0
    4.8951    4.7541    0.0000 O   0  0  0  0  0  0  0  0  0  0  0  0
    5.8670    3.7066    0.0000 N   0  0  0  0  0  0  0  0  0  0  0  0
    5.2622    3.1455    0.0000 C   0  0  0  0  0  0  0  0  0  0  0  0
    5.4458    2.3412    0.0000 C   0  0  0  0  0  0  0  0  0  0  0  0
    4.8410    1.7800    0.0000 C   0  0  0  0  0  0  0  0  0  0  0  0
    4.0527    2.0232    0.0000 C   0  0  0  0  0  0  0  0  0  0  0  0
    3.4479    1.4620    0.0000 C   0  0  0  0  0  0  0  0  0  0  0  0
    2.6596    1.7052    0.0000 O   0  0  0  0  0  0  0  0  0  0  0  0
    3.6315    0.6577    0.0000 N   0  0  0  0  0  0  0  0  0  0  0  0
    4.4358    0.4742    0.0000 C   0  0  0  0  0  0  0  0  0  0  0  0
    4.7938   -0.2691    0.0000 C   0  0  0  0  0  0  0  0  0  0  0  0
    4.4358   -1.0124    0.0000 C   0  0  0  0  0  0  0  0  0  0  0  0
    5.2401   -1.1960    0.0000 F   0  0  0  0  0  0  0  0  0  0  0  0
    4.4358   -1.8374    0.0000 F   0  0  0  0  0  0  0  0  0  0  0  0
    3.6315   -1.1960    0.0000 C   0  0  0  0  0  0  0  0  0  0  0  0
    3.4479   -2.0003    0.0000 C   0  0  0  0  0  0  0  0  0  0  0  0
    4.0527   -2.5615    0.0000 C   0  0  0  0  0  0  0  0  0  0  0  0
    4.8410   -2.3183    0.0000 O   0  0  0  0  0  0  0  0  0  0  0  0
    3.8691   -3.3658    0.0000 N   0  0  0  0  0  0  0  0  0  0  0  0
    4.4739   -3.9269    0.0000 C   0  0  0  0  0  0  0  0  0  0  0  0
    4.2903   -4.7313    0.0000 C   0  0  0  0  0  0  0  0  0  0  0  0
    3.5020   -4.9744    0.0000 C   0  0  0  0  0  0  0  0  0  0  0  0
    3.3184   -5.7787    0.0000 N   0  0  0  0  0  0  0  0  0  0  0  0
    3.9231   -6.3399    0.0000 C   0  0  0  0  0  0  0  0  0  0  0  0
    3.7396   -7.1442    0.0000 C   0  0  0  0  0  0  0  0  0  0  0  0
    2.9512   -7.3874    0.0000 C   0  0  0  0  0  0  0  0  0  0  0  0
    2.3464   -6.8262    0.0000 C   0  0  0  0  0  0  0  0  0  0  0  0
    2.5300   -6.0219    0.0000 C   0  0  0  0  0  0  0  0  0  0  0  0
    2.8972   -4.4133    0.0000 C   0  0  0  0  0  0  0  0  0  0  0  0
    3.0808   -3.6090    0.0000 C   0  0  0  0  0  0  0  0  0  0  0  0
    2.9865   -0.6816    0.0000 C   0  0  0  0  0  0  0  0  0  0  0  0
    2.2720   -1.0941    0.0000 C   0  0  0  0  0  0  0  0  0  0  0  0
    1.5575   -0.6816    0.0000 C   0  0  0  0  0  0  0  0  0  0  0  0
    1.5575    0.1434    0.0000 C   0  0  0  0  0  0  0  0  0  0  0  0
    2.2720    0.5559    0.0000 C   0  0  0  0  0  0  0  0  0  0  0  0
    2.9865    0.1434    0.0000 C   0  0  0  0  0  0  0  0  0  0  0  0
    3.8691    2.8275    0.0000 C   0  0  0  0  0  0  0  0  0  0  0  0
    4.4739    3.3886    0.0000 C   0  0  0  0  0  0  0  0  0  0  0  0
  1  2  1  0  0  0  0
  2  3  4  0  0  0  0
  3  4  4  0  0  0  0
  4  5  4  0  0  0  0
  5  6  4  0  0  0  0
  2  6  4  0  0  0  0
  6  7  1  0  0  0  0
  7  8  2  0  0  0  0
  7  9  1  0  0  0  0
  9 10  1  0  0  0  0
 10 11  4  0  0  0  0
 11 12  4  0  0  0  0
 12 13  4  0  0  0  0
 13 14  1  0  0  0  0
 14 15  2  0  0  0  0
 14 16  1  0  0  0  0
 16 17  1  0  0  0  0
 17 18  1  0  0  0  0
 18 19  1  0  0  0  0
 19 20  1  0  0  0  0
 19 21  1  0  0  0  0
 19 22  1  0  0  0  0
 22 23  2  0  0  0  0
 23 24  1  4  0  0  0
 24 25  2  0  0  0  0
 24 26  1  0  0  0  0
 26 27  1  0  0  0  0
 27 28  1  0  0  0  0
 28 29  1  0  0  0  0
 29 30  1  0  0  0  0
 30 31  1  0  0  0  0
 31 32  1  0  0  0  0
 32 33  1  0  0  0  0
 33 34  1  0  0  0  0
 34 35  1  0  0  0  0
 30 35  1  0  0  0  0
 29 36  1  0  0  0  0
 36 37  1  0  0  0  0
 26 37  1  0  0  0  0
 22 38  1  0  0  0  0
 38 39  4  0  0  0  0
 39 40  4  0  0  0  0
 40 41  4  0  0  0  0
 41 42  4  0  0  0  0
 42 43  4  0  0  0  0
 38 43  4  0  0  0  0
 16 43  1  0  0  0  0
 13 44  4  0  0  0  0
 44 45  4  0  0  0  0
 10 45  4  0  0  0  0
M  END
> <activity>
-3.819957328

> <InChiKey>
VDUUABBYYOPFAW-UHFFFAOYSA-N

$$$$
