
  Mrv2220 08292413132D          

 10 10  0  0  0  0            999 V2000
    0.0000    2.4750    0.0000 O   0  0  0  0  0  0  0  0  0  0  0  0
    0.7145    2.0625    0.0000 N   0  3  0  0  0  0  0  0  0  0  0  0
    1.4289    2.4750    0.0000 O   0  5  0  0  0  0  0  0  0  0  0  0
    0.7145    1.2375    0.0000 C   0  0  0  0  0  0  0  0  0  0  0  0
    1.4289    0.8250    0.0000 C   0  0  0  0  0  0  0  0  0  0  0  0
    1.4289   -0.0000    0.0000 C   0  0  0  0  0  0  0  0  0  0  0  0
    0.7145   -0.4125    0.0000 C   0  0  0  0  0  0  0  0  0  0  0  0
    0.7145   -1.2375    0.0000 O   0  0  0  0  0  0  0  0  0  0  0  0
    0.0000    0.0000    0.0000 C   0  0  0  0  0  0  0  0  0  0  0  0
    0.0000    0.8250    0.0000 C   0  0  0  0  0  0  0  0  0  0  0  0
  1  2  2  0  0  0  0
  2  3  1  0  0  0  0
  2  4  1  0  0  0  0
  4  5  4  0  0  0  0
  5  6  4  0  0  0  0
  6  7  4  0  0  0  0
  7  8  1  0  0  0  0
  7  9  4  0  0  0  0
  9 10  4  0  0  0  0
  4 10  4  0  0  0  0
M  CHG  2   2   1   3  -1
M  END
> <activity>
100.08793324999999

> <InChiKey>
BTJIUGUIPKRLHP-UHFFFAOYSA-N

$$$$

  Mrv2220 08292413132D          

 12 12  0  0  0  0            999 V2000
    0.7145    2.0625    0.0000 C   0  0  0  0  0  0  0  0  0  0  0  0
    0.7145    1.2375    0.0000 C   0  0  0  0  0  0  0  0  0  0  0  0
    1.4289    0.8250    0.0000 C   0  0  0  0  0  0  0  0  0  0  0  0
    1.4289   -0.0000    0.0000 C   0  0  0  0  0  0  0  0  0  0  0  0
    0.7145   -0.4125    0.0000 C   0  0  0  0  0  0  0  0  0  0  0  0
    0.7145   -1.2375    0.0000 C   0  0  0  0  0  0  0  0  0  0  0  0
    0.0000    0.0000    0.0000 C   0  0  0  0  0  0  0  0  0  0  0  0
   -0.7145   -0.4125    0.0000 S   0  0  0  0  0  0  0  0  0  0  0  0
   -1.4289   -0.8250    0.0000 O   0  0  0  0  0  0  0  0  0  0  0  0
   -1.1270    0.3020    0.0000 O   0  0  0  0  0  0  0  0  0  0  0  0
   -0.3020   -1.1270    0.0000 O   0  0  0  0  0  0  0  0  0  0  0  0
    0.0000    0.8250    0.0000 C   0  0  0  0  0  0  0  0  0  0  0  0
  1  2  1  0  0  0  0
  2  3  4  0  0  0  0
  3  4  4  0  0  0  0
  4  5  4  0  0  0  0
  5  6  1  0  0  0  0
  5  7  4  0  0  0  0
  7  8  1  0  0  0  0
  8  9  2  0  0  0  0
  8 10  2  0  0  0  0
  8 11  1  0  0  0  0
  7 12  4  0  0  0  0
  2 12  4  0  0  0  0
M  END
> <activity>
38.12040633

> <InChiKey>
IRLYGRLEBKCYPY-UHFFFAOYSA-N

$$$$

  Mrv2220 08292413132D          

 11 11  0  0  0  0            999 V2000
    0.7145    2.0625    0.0000 O   0  0  0  0  0  0  0  0  0  0  0  0
    0.7145    1.2375    0.0000 C   0  0  0  0  0  0  0  0  0  0  0  0
    1.4289    0.8250    0.0000 N   0  0  0  0  0  0  0  0  0  0  0  0
    1.4289   -0.0000    0.0000 C   0  0  0  0  0  0  0  0  0  0  0  0
    2.1434   -0.4125    0.0000 O   0  0  0  0  0  0  0  0  0  0  0  0
    0.7145   -0.4125    0.0000 N   0  0  0  0  0  0  0  0  0  0  0  0
    0.7145   -1.2375    0.0000 Cl  0  0  0  0  0  0  0  0  0  0  0  0
    0.0000    0.0000    0.0000 C   0  0  0  0  0  0  0  0  0  0  0  0
   -0.7145   -0.4125    0.0000 O   0  0  0  0  0  0  0  0  0  0  0  0
    0.0000    0.8250    0.0000 N   0  0  0  0  0  0  0  0  0  0  0  0
   -0.7145    1.2375    0.0000 Cl  0  0  0  0  0  0  0  0  0  0  0  0
  1  2  2  0  0  0  0
  2  3  4  0  0  0  0
  3  4  4  0  0  0  0
  4  5  2  0  0  0  0
  4  6  4  0  0  0  0
  6  7  1  0  0  0  0
  6  8  4  0  0  0  0
  8  9  2  0  0  0  0
  8 10  4  0  0  0  0
  2 10  4  0  0  0  0
 10 11  1  0  0  0  0
M  STY  1   1 DAT
M  SAL   1  1   3
M  SDT   1 MRV_IMPLICIT_H                                        
M  SDD   1     0.5304   -0.4125    DR    ALL  0       0  
M  SED   1 IMPL_H1
M  END
> <activity>
14.850000000000001

> <InChiKey>
CEJLBZWIKQJOAT-UHFFFAOYSA-N

$$$$

  Mrv2220 08292413132D          

 12 12  0  0  0  0            999 V2000
    0.7145    2.0625    0.0000 C   0  0  0  0  0  0  0  0  0  0  0  0
    0.7145    1.2375    0.0000 C   0  0  0  0  0  0  0  0  0  0  0  0
    1.4289    0.8250    0.0000 C   0  0  0  0  0  0  0  0  0  0  0  0
    1.4289   -0.0000    0.0000 C   0  0  0  0  0  0  0  0  0  0  0  0
    0.7145   -0.4125    0.0000 C   0  0  0  0  0  0  0  0  0  0  0  0
    0.7145   -1.2375    0.0000 S   0  0  0  0  0  0  0  0  0  0  0  0
    0.7145   -2.0625    0.0000 O   0  0  0  0  0  0  0  0  0  0  0  0
   -0.1105   -1.2375    0.0000 O   0  0  0  0  0  0  0  0  0  0  0  0
    1.5395   -1.2375    0.0000 O   0  0  0  0  0  0  0  0  0  0  0  0
    0.0000    0.0000    0.0000 C   0  0  0  0  0  0  0  0  0  0  0  0
   -0.7145   -0.4125    0.0000 C   0  0  0  0  0  0  0  0  0  0  0  0
    0.0000    0.8250    0.0000 C   0  0  0  0  0  0  0  0  0  0  0  0
  1  2  1  0  0  0  0
  2  3  4  0  0  0  0
  3  4  4  0  0  0  0
  4  5  4  0  0  0  0
  5  6  1  0  0  0  0
  6  7  2  0  0  0  0
  6  8  2  0  0  0  0
  6  9  1  0  0  0  0
  5 10  4  0  0  0  0
 10 11  1  0  0  0  0
 10 12  4  0  0  0  0
  2 12  4  0  0  0  0
M  END
> <activity>
26.4

> <InChiKey>
CHZLVSBMXZSPNN-UHFFFAOYSA-N

$$$$

  Mrv2220 08292413132D          

 18 19  0  0  0  0            999 V2000
    0.0000   -0.0000    0.0000 C   0  0  0  0  0  0  0  0  0  0  0  0
    0.7145   -0.4125    0.0000 O   0  0  0  0  0  0  0  0  0  0  0  0
    0.7145   -1.2375    0.0000 C   0  0  0  0  0  0  0  0  0  0  0  0
    1.4289   -1.6500    0.0000 C   0  0  0  0  0  0  0  0  0  0  0  0
    1.4289   -2.4750    0.0000 C   0  0  0  0  0  0  0  0  0  0  0  0
    2.1434   -2.8875    0.0000 C   0  0  0  0  0  0  0  0  0  0  0  0
    2.8579   -2.4750    0.0000 C   0  0  0  0  0  0  0  0  0  0  0  0
    3.5724   -2.8875    0.0000 C   0  0  0  0  0  0  0  0  0  0  0  0
    3.5724   -3.7125    0.0000 C   0  0  0  0  0  0  0  0  0  0  0  0
    4.2868   -4.1250    0.0000 N   0  0  0  0  0  0  0  0  0  0  0  0
    2.8579   -4.1250    0.0000 C   0  0  0  0  0  0  0  0  0  0  0  0
    2.8579   -4.9500    0.0000 O   0  0  0  0  0  0  0  0  0  0  0  0
    2.1434   -5.3625    0.0000 C   0  0  0  0  0  0  0  0  0  0  0  0
    2.1434   -3.7125    0.0000 C   0  0  0  0  0  0  0  0  0  0  0  0
    0.7145   -2.8875    0.0000 C   0  0  0  0  0  0  0  0  0  0  0  0
    0.0000   -2.4750    0.0000 C   0  0  0  0  0  0  0  0  0  0  0  0
    0.0000   -1.6500    0.0000 C   0  0  0  0  0  0  0  0  0  0  0  0
   -0.7145   -1.2375    0.0000 N   0  0  0  0  0  0  0  0  0  0  0  0
  1  2  1  0  0  0  0
  2  3  1  0  0  0  0
  3  4  4  0  0  0  0
  4  5  4  0  0  0  0
  5  6  1  0  0  0  0
  6  7  4  0  0  0  0
  7  8  4  0  0  0  0
  8  9  4  0  0  0  0
  9 10  1  0  0  0  0
  9 11  4  0  0  0  0
 11 12  1  0  0  0  0
 12 13  1  0  0  0  0
 11 14  4  0  0  0  0
  6 14  4  0  0  0  0
  5 15  4  0  0  0  0
 15 16  4  0  0  0  0
 16 17  4  0  0  0  0
  3 17  4  0  0  0  0
 17 18  1  0  0  0  0
M  END
> <activity>
106.65

> <InChiKey>
JRBJSXQPQWSCCF-UHFFFAOYSA-N

$$$$

  Mrv2220 08292413132D          

 14 15  0  0  0  0            999 V2000
   -1.3548    2.2461    0.0000 C   0  0  0  0  0  0  0  0  0  0  0  0
   -0.5675    1.9997    0.0000 C   0  0  0  0  0  0  0  0  0  0  0  0
    0.0396    2.5583    0.0000 O   0  0  0  0  0  0  0  0  0  0  0  0
   -0.3805    1.1644    0.0000 O   0  0  0  0  0  0  0  0  0  0  0  0
    0.2733    0.5639    0.0000 C   0  0  0  0  0  0  0  0  0  0  0  0
    0.2543   -0.2609    0.0000 C   0  0  0  0  0  0  0  0  0  0  0  0
    0.8472   -0.6569    0.0000 C   0  0  0  0  0  0  0  0  0  0  0  0
    1.5709   -0.2609    0.0000 C   0  0  0  0  0  0  0  0  0  0  0  0
    1.5899    0.5639    0.0000 C   0  0  0  0  0  0  0  0  0  0  0  0
    0.8850    0.9927    0.0000 C   0  0  0  0  0  0  0  0  0  0  0  0
    0.9950    1.8451    0.0000 C   0  0  0  0  0  0  0  0  0  0  0  0
    0.6599    0.1726    0.0000 C   0  0  0  0  0  0  0  0  0  0  0  0
   -0.3060    0.5023    0.0000 C   0  0  0  0  0  0  0  0  0  0  0  0
   -0.2638   -0.2912    0.0000 C   0  0  0  0  0  0  0  0  0  0  0  0
  1  2  1  0  0  0  0
  2  3  2  0  0  0  0
  2  4  1  0  0  0  0
  4  5  1  0  0  0  0
  5  6  1  0  0  0  0
  6  7  1  0  0  0  0
  7  8  1  0  0  0  0
  8  9  1  0  0  0  0
  9 10  1  0  0  0  0
  5 10  1  0  0  0  0
 10 11  1  0  0  0  0
 10 12  1  0  0  0  0
  7 12  1  0  0  0  0
 12 13  1  0  0  0  0
 12 14  1  0  0  0  0
M  END
> <activity>
12.2

> <InChiKey>
KGEKLUUHTZCSIP-UHFFFAOYSA-N

$$$$

  Mrv2220 08292413132D          

 16 17  0  0  0  0            999 V2000
    0.7145   -0.4125    0.0000 C   0  0  0  0  0  0  0  0  0  0  0  0
    0.7145   -1.2375    0.0000 C   0  0  0  0  0  0  0  0  0  0  0  0
    1.4289   -1.6500    0.0000 C   0  0  0  0  0  0  0  0  0  0  0  0
    1.4289   -2.4750    0.0000 C   0  0  0  0  0  0  0  0  0  0  0  0
    2.1434   -2.8875    0.0000 C   0  0  0  0  0  0  0  0  0  0  0  0
    2.8579   -2.4750    0.0000 C   0  0  0  0  0  0  0  0  0  0  0  0
    3.5724   -2.8875    0.0000 C   0  0  0  0  0  0  0  0  0  0  0  0
    3.5724   -3.7125    0.0000 C   0  0  0  0  0  0  0  0  0  0  0  0
    4.2868   -4.1250    0.0000 N   0  0  0  0  0  0  0  0  0  0  0  0
    2.8579   -4.1250    0.0000 C   0  0  0  0  0  0  0  0  0  0  0  0
    2.8579   -4.9500    0.0000 C   0  0  0  0  0  0  0  0  0  0  0  0
    2.1434   -3.7125    0.0000 C   0  0  0  0  0  0  0  0  0  0  0  0
    0.7145   -2.8875    0.0000 C   0  0  0  0  0  0  0  0  0  0  0  0
    0.0000   -2.4750    0.0000 C   0  0  0  0  0  0  0  0  0  0  0  0
    0.0000   -1.6500    0.0000 C   0  0  0  0  0  0  0  0  0  0  0  0
   -0.7145   -1.2375    0.0000 N   0  0  0  0  0  0  0  0  0  0  0  0
  1  2  1  0  0  0  0
  2  3  4  0  0  0  0
  3  4  4  0  0  0  0
  4  5  1  0  0  0  0
  5  6  4  0  0  0  0
  6  7  4  0  0  0  0
  7  8  4  0  0  0  0
  8  9  1  0  0  0  0
  8 10  4  0  0  0  0
 10 11  1  0  0  0  0
 10 12  4  0  0  0  0
  5 12  4  0  0  0  0
  4 13  4  0  0  0  0
 13 14  4  0  0  0  0
 14 15  4  0  0  0  0
  2 15  4  0  0  0  0
 15 16  1  0  0  0  0
M  END
> <activity>
106.7

> <InChiKey>
NUIURNJTPRWVAP-UHFFFAOYSA-N

$$$$

  Mrv2220 08292413132D          

 23 24  0  0  0  0            999 V2000
    0.7145   -2.0625    0.0000 O   0  0  0  0  0  0  0  0  0  0  0  0
    0.7145   -1.2375    0.0000 C   0  0  0  0  0  0  0  0  0  0  0  0
    1.4289   -0.8250    0.0000 O   0  0  0  0  0  0  0  0  0  0  0  0
    2.1434   -1.2375    0.0000 C   0  0  0  0  0  0  0  0  0  0  0  0
    2.8579   -0.8250    0.0000 C   0  0  0  0  0  0  0  0  0  0  0  0
    3.5724   -1.2375    0.0000 O   0  0  0  0  0  0  0  0  0  0  0  0
    4.2868   -0.8250    0.0000 C   0  0  0  0  0  0  0  0  0  0  0  0
    5.0013   -1.2375    0.0000 C   0  0  0  0  0  0  0  0  0  0  0  0
    5.7158   -0.8250    0.0000 O   0  0  0  0  0  0  0  0  0  0  0  0
    6.4302   -1.2375    0.0000 C   0  0  0  0  0  0  0  0  0  0  0  0
    6.4302   -2.0625    0.0000 O   0  0  0  0  0  0  0  0  0  0  0  0
    7.1447   -0.8250    0.0000 C   0  0  0  0  0  0  0  0  0  0  0  0
    7.1447    0.0000    0.0000 C   0  0  0  0  0  0  0  0  0  0  0  0
    7.8592    0.4125    0.0000 C   0  0  0  0  0  0  0  0  0  0  0  0
    8.5737    0.0000    0.0000 C   0  0  0  0  0  0  0  0  0  0  0  0
    8.5737   -0.8250    0.0000 C   0  0  0  0  0  0  0  0  0  0  0  0
    7.8592   -1.2375    0.0000 C   0  0  0  0  0  0  0  0  0  0  0  0
    0.0000   -0.8250    0.0000 C   0  0  0  0  0  0  0  0  0  0  0  0
   -0.7145   -1.2375    0.0000 C   0  0  0  0  0  0  0  0  0  0  0  0
   -1.4289   -0.8250    0.0000 C   0  0  0  0  0  0  0  0  0  0  0  0
   -1.4289    0.0000    0.0000 C   0  0  0  0  0  0  0  0  0  0  0  0
   -0.7145    0.4125    0.0000 C   0  0  0  0  0  0  0  0  0  0  0  0
    0.0000    0.0000    0.0000 C   0  0  0  0  0  0  0  0  0  0  0  0
  1  2  2  0  0  0  0
  2  3  1  0  0  0  0
  3  4  1  0  0  0  0
  4  5  1  0  0  0  0
  5  6  1  0  0  0  0
  6  7  1  0  0  0  0
  7  8  1  0  0  0  0
  8  9  1  0  0  0  0
  9 10  1  0  0  0  0
 10 11  2  0  0  0  0
 10 12  1  0  0  0  0
 12 13  4  0  0  0  0
 13 14  4  0  0  0  0
 14 15  4  0  0  0  0
 15 16  4  0  0  0  0
 16 17  4  0  0  0  0
 12 17  4  0  0  0  0
  2 18  1  0  0  0  0
 18 19  4  0  0  0  0
 19 20  4  0  0  0  0
 20 21  4  0  0  0  0
 21 22  4  0  0  0  0
 22 23  4  0  0  0  0
 18 23  4  0  0  0  0
M  END
> <activity>
31.950000000000003

> <InChiKey>
NXQMCAOPTPLPRL-UHFFFAOYSA-N

$$$$

  Mrv2220 08292413132D          

 13 13  0  0  0  0            999 V2000
   -0.7145    3.7125    0.0000 O   0  0  0  0  0  0  0  0  0  0  0  0
    0.0000    3.3000    0.0000 C   0  0  0  0  0  0  0  0  0  0  0  0
    0.7145    3.7125    0.0000 O   0  0  0  0  0  0  0  0  0  0  0  0
    0.0000    2.4750    0.0000 C   0  0  0  0  0  0  0  0  0  0  0  0
    0.7145    2.0625    0.0000 O   0  0  0  0  0  0  0  0  0  0  0  0
    0.7145    1.2375    0.0000 C   0  0  0  0  0  0  0  0  0  0  0  0
    1.4289    0.8250    0.0000 C   0  0  0  0  0  0  0  0  0  0  0  0
    1.4289   -0.0000    0.0000 C   0  0  0  0  0  0  0  0  0  0  0  0
    0.7145   -0.4125    0.0000 C   0  0  0  0  0  0  0  0  0  0  0  0
    0.7145   -1.2375    0.0000 Cl  0  0  0  0  0  0  0  0  0  0  0  0
    0.0000    0.0000    0.0000 C   0  0  0  0  0  0  0  0  0  0  0  0
    0.0000    0.8250    0.0000 C   0  0  0  0  0  0  0  0  0  0  0  0
   -0.7145    1.2375    0.0000 Cl  0  0  0  0  0  0  0  0  0  0  0  0
  1  2  2  0  0  0  0
  2  3  1  0  0  0  0
  2  4  1  0  0  0  0
  4  5  1  0  0  0  0
  5  6  1  0  0  0  0
  6  7  4  0  0  0  0
  7  8  4  0  0  0  0
  8  9  4  0  0  0  0
  9 10  1  0  0  0  0
  9 11  4  0  0  0  0
 11 12  4  0  0  0  0
  6 12  4  0  0  0  0
 12 13  1  0  0  0  0
M  END
> <activity>
88.6

> <InChiKey>
OVSKIKFHRZPJSS-UHFFFAOYSA-N

$$$$

  Mrv2220 08292413132D          

 19 21  0  0  0  0            999 V2000
    4.4720    0.6068    0.0000 O   0  0  0  0  0  0  0  0  0  0  0  0
    3.6030    0.6109    0.0000 S   0  0  0  0  0  0  0  0  0  0  0  0
    3.2415   -0.1307    0.0000 O   0  0  0  0  0  0  0  0  0  0  0  0
    2.4363   -0.3104    0.0000 C   0  0  0  0  0  0  0  0  0  0  0  0
    1.6812    0.2379    0.0000 C   0  0  0  0  0  0  0  0  0  0  0  0
    1.6852    1.0629    0.0000 C   0  0  0  0  0  0  0  0  0  0  0  0
    2.4452    1.5434    0.0000 C   0  0  0  0  0  0  0  0  0  0  0  0
    3.2486    1.3559    0.0000 O   0  0  0  0  0  0  0  0  0  0  0  0
    1.0853    1.4481    0.0000 C   0  0  0  0  0  0  0  0  0  0  0  0
    1.0133    2.3139    0.0000 Cl  0  0  0  0  0  0  0  0  0  0  0  0
    0.3688    1.0390    0.0000 C   0  0  0  0  0  0  0  0  0  0  0  0
   -0.3753    1.4709    0.0000 Cl  0  0  0  0  0  0  0  0  0  0  0  0
    0.3648    0.2141    0.0000 C   0  0  0  0  0  0  0  0  0  0  0  0
   -0.3832   -0.2109    0.0000 Cl  0  0  0  0  0  0  0  0  0  0  0  0
    1.0773   -0.2019    0.0000 C   0  0  0  0  0  0  0  0  0  0  0  0
    0.9956   -1.0648    0.0000 Cl  0  0  0  0  0  0  0  0  0  0  0  0
    1.2875    0.6221    0.0000 C   0  0  0  0  0  0  0  0  0  0  0  0
    2.1407    0.2979    0.0000 Cl  0  0  0  0  0  0  0  0  0  0  0  0
    2.1471    0.8927    0.0000 Cl  0  0  0  0  0  0  0  0  0  0  0  0
  1  2  2  0  0  0  0
  2  3  1  0  0  0  0
  3  4  1  0  0  0  0
  4  5  1  0  0  0  0
  5  6  1  0  0  0  0
  6  7  1  0  0  0  0
  7  8  1  0  0  0  0
  2  8  1  0  0  0  0
  6  9  1  0  0  0  0
  9 10  1  0  0  0  0
  9 11  1  0  0  0  0
 11 12  1  0  0  0  0
 11 13  2  0  0  0  0
 13 14  1  0  0  0  0
 13 15  1  0  0  0  0
  5 15  1  0  0  0  0
 15 16  1  0  0  0  0
 15 17  1  0  0  0  0
  9 17  1  0  0  0  0
 17 18  1  0  0  0  0
 17 19  1  0  0  0  0
M  END
> <activity>
17.65

> <InChiKey>
RDYMFSUJUZBWLH-UHFFFAOYSA-N

$$$$

  Mrv2220 08292413132D          

 25 24  0  0  0  0            999 V2000
    0.1105   -6.1875    0.0000 O   0  0  0  0  0  0  0  0  0  0  0  0
    0.8250   -5.7750    0.0000 C   0  0  0  0  0  0  0  0  0  0  0  0
    1.5395   -6.1875    0.0000 O   0  0  0  0  0  0  0  0  0  0  0  0
    0.8250   -4.9500    0.0000 C   0  0  0  0  0  0  0  0  0  0  0  0
    1.6500   -4.9500    0.0000 F   0  0  0  0  0  0  0  0  0  0  0  0
    0.0000   -4.9500    0.0000 F   0  0  0  0  0  0  0  0  0  0  0  0
    0.8250   -4.1250    0.0000 C   0  0  0  0  0  0  0  0  0  0  0  0
    1.6500   -4.1250    0.0000 F   0  0  0  0  0  0  0  0  0  0  0  0
    0.0000   -4.1250    0.0000 F   0  0  0  0  0  0  0  0  0  0  0  0
    0.8250   -3.3000    0.0000 C   0  0  0  0  0  0  0  0  0  0  0  0
    1.6500   -3.3000    0.0000 F   0  0  0  0  0  0  0  0  0  0  0  0
    0.0000   -3.3000    0.0000 F   0  0  0  0  0  0  0  0  0  0  0  0
    0.8250   -2.4750    0.0000 C   0  0  0  0  0  0  0  0  0  0  0  0
    1.6500   -2.4750    0.0000 F   0  0  0  0  0  0  0  0  0  0  0  0
    0.0000   -2.4750    0.0000 F   0  0  0  0  0  0  0  0  0  0  0  0
    0.8250   -1.6500    0.0000 C   0  0  0  0  0  0  0  0  0  0  0  0
    1.6500   -1.6500    0.0000 F   0  0  0  0  0  0  0  0  0  0  0  0
    0.0000   -1.6500    0.0000 F   0  0  0  0  0  0  0  0  0  0  0  0
    0.8250   -0.8250    0.0000 C   0  0  0  0  0  0  0  0  0  0  0  0
    1.6500   -0.8250    0.0000 F   0  0  0  0  0  0  0  0  0  0  0  0
    0.0000   -0.8250    0.0000 F   0  0  0  0  0  0  0  0  0  0  0  0
    0.8250    0.0000    0.0000 C   0  0  0  0  0  0  0  0  0  0  0  0
    0.8250    0.8250    0.0000 F   0  0  0  0  0  0  0  0  0  0  0  0
    1.6500   -0.0000    0.0000 F   0  0  0  0  0  0  0  0  0  0  0  0
    0.0000    0.0000    0.0000 F   0  0  0  0  0  0  0  0  0  0  0  0
  1  2  2  0  0  0  0
  2  3  1  0  0  0  0
  2  4  1  0  0  0  0
  4  5  1  0  0  0  0
  4  6  1  0  0  0  0
  4  7  1  0  0  0  0
  7  8  1  0  0  0  0
  7  9  1  0  0  0  0
  7 10  1  0  0  0  0
 10 11  1  0  0  0  0
 10 12  1  0  0  0  0
 10 13  1  0  0  0  0
 13 14  1  0  0  0  0
 13 15  1  0  0  0  0
 13 16  1  0  0  0  0
 16 17  1  0  0  0  0
 16 18  1  0  0  0  0
 16 19  1  0  0  0  0
 19 20  1  0  0  0  0
 19 21  1  0  0  0  0
 19 22  1  0  0  0  0
 22 23  1  0  0  0  0
 22 24  1  0  0  0  0
 22 25  1  0  0  0  0
M  END
> <activity>
103.85

> <InChiKey>
SNGREZUHAYWORS-UHFFFAOYSA-N

$$$$

  Mrv2220 08292413132D          

 20 23  0  0  0  0            999 V2000
    1.3895   -1.8497    0.0000 C   0  0  0  0  0  0  0  0  0  0  0  0
    1.7494   -2.5921    0.0000 C   0  0  0  0  0  0  0  0  0  0  0  0
    2.2812   -1.9614    0.0000 C   0  0  0  0  0  0  0  0  0  0  0  0
    3.0934   -2.1066    0.0000 C   0  0  0  0  0  0  0  0  0  0  0  0
    3.3737   -2.8825    0.0000 C   0  0  0  0  0  0  0  0  0  0  0  0
    4.1858   -3.0277    0.0000 C   0  0  0  0  0  0  0  0  0  0  0  0
    4.7176   -2.3970    0.0000 C   0  0  0  0  0  0  0  0  0  0  0  0
    5.5297   -2.5422    0.0000 C   0  0  0  0  0  0  0  0  0  0  0  0
    5.8100   -3.3182    0.0000 C   0  0  0  0  0  0  0  0  0  0  0  0
    6.6221   -3.4634    0.0000 O   0  0  0  0  0  0  0  0  0  0  0  0
    5.2782   -3.9489    0.0000 C   0  0  0  0  0  0  0  0  0  0  0  0
    4.4661   -3.8037    0.0000 C   0  0  0  0  0  0  0  0  0  0  0  0
    3.9343   -4.4344    0.0000 C   0  0  0  0  0  0  0  0  0  0  0  0
    3.1221   -4.2891    0.0000 C   0  0  0  0  0  0  0  0  0  0  0  0
    2.8418   -3.5132    0.0000 C   0  0  0  0  0  0  0  0  0  0  0  0
    2.0297   -3.3680    0.0000 C   0  0  0  0  0  0  0  0  0  0  0  0
    1.3784   -3.8744    0.0000 C   0  0  0  0  0  0  0  0  0  0  0  0
    0.6955   -3.4114    0.0000 C   0  0  0  0  0  0  0  0  0  0  0  0
    0.9249   -2.6189    0.0000 C   0  0  0  0  0  0  0  0  0  0  0  0
    0.4185   -1.9676    0.0000 O   0  0  0  0  0  0  0  0  0  0  0  0
  1  2  1  0  0  0  0
  2  3  1  0  0  0  0
  3  4  1  0  0  0  0
  4  5  1  0  0  0  0
  5  6  1  0  0  0  0
  6  7  4  0  0  0  0
  7  8  4  0  0  0  0
  8  9  4  0  0  0  0
  9 10  1  0  0  0  0
  9 11  4  0  0  0  0
 11 12  4  0  0  0  0
  6 12  4  0  0  0  0
 12 13  1  0  0  0  0
 13 14  1  0  0  0  0
 14 15  1  0  0  0  0
  5 15  1  0  0  0  0
 15 16  1  0  0  0  0
  2 16  1  0  0  0  0
 16 17  1  0  0  0  0
 17 18  1  0  0  0  0
 18 19  1  0  0  0  0
  2 19  1  0  0  0  0
 19 20  1  0  0  0  0
M  END
> <activity>
51.3

> <InChiKey>
VOXZDWNPVJITMN-UHFFFAOYSA-N

$$$$

  Mrv2220 08292413132D          

 13 13  0  0  0  0            999 V2000
    0.7145    2.0625    0.0000 C   0  0  0  0  0  0  0  0  0  0  0  0
    0.7145    1.2375    0.0000 C   0  0  0  0  0  0  0  0  0  0  0  0
    1.4289    0.8250    0.0000 C   0  0  0  0  0  0  0  0  0  0  0  0
    1.4289   -0.0000    0.0000 C   0  0  0  0  0  0  0  0  0  0  0  0
    2.1434   -0.4125    0.0000 Cl  0  0  0  0  0  0  0  0  0  0  0  0
    0.7145   -0.4125    0.0000 C   0  0  0  0  0  0  0  0  0  0  0  0
    0.0000    0.0000    0.0000 C   0  0  0  0  0  0  0  0  0  0  0  0
    0.0000    0.8250    0.0000 C   0  0  0  0  0  0  0  0  0  0  0  0
   -0.7145    1.2375    0.0000 O   0  0  0  0  0  0  0  0  0  0  0  0
   -1.4289    0.8250    0.0000 C   0  0  0  0  0  0  0  0  0  0  0  0
   -2.1434    1.2375    0.0000 C   0  0  0  0  0  0  0  0  0  0  0  0
   -2.8579    0.8250    0.0000 O   0  0  0  0  0  0  0  0  0  0  0  0
   -2.1434    2.0625    0.0000 O   0  0  0  0  0  0  0  0  0  0  0  0
  1  2  1  0  0  0  0
  2  3  4  0  0  0  0
  3  4  4  0  0  0  0
  4  5  1  0  0  0  0
  4  6  4  0  0  0  0
  6  7  4  0  0  0  0
  7  8  4  0  0  0  0
  2  8  4  0  0  0  0
  8  9  1  0  0  0  0
  9 10  1  0  0  0  0
 10 11  1  0  0  0  0
 11 12  2  0  0  0  0
 11 13  1  0  0  0  0
M  END
> <activity>
82.25

> <InChiKey>
WHKUVVPPKQRRBV-UHFFFAOYSA-N

$$$$

  Mrv2220 08292413132D          

 29 28  0  0  0  0            999 V2000
    0.8250   -7.4250    0.0000 O   0  0  0  0  0  0  0  0  0  0  0  0
    0.8250   -6.6000    0.0000 S   0  0  0  0  0  0  0  0  0  0  0  0
    1.6500   -6.6000    0.0000 O   0  0  0  0  0  0  0  0  0  0  0  0
    0.0000   -6.6000    0.0000 O   0  0  0  0  0  0  0  0  0  0  0  0
    0.8250   -5.7750    0.0000 C   0  0  0  0  0  0  0  0  0  0  0  0
    1.6500   -5.7750    0.0000 F   0  0  0  0  0  0  0  0  0  0  0  0
    0.0000   -5.7750    0.0000 F   0  0  0  0  0  0  0  0  0  0  0  0
    0.8250   -4.9500    0.0000 C   0  0  0  0  0  0  0  0  0  0  0  0
    1.6500   -4.9500    0.0000 F   0  0  0  0  0  0  0  0  0  0  0  0
    0.0000   -4.9500    0.0000 F   0  0  0  0  0  0  0  0  0  0  0  0
    0.8250   -4.1250    0.0000 C   0  0  0  0  0  0  0  0  0  0  0  0
    1.6500   -4.1250    0.0000 F   0  0  0  0  0  0  0  0  0  0  0  0
    0.0000   -4.1250    0.0000 F   0  0  0  0  0  0  0  0  0  0  0  0
    0.8250   -3.3000    0.0000 C   0  0  0  0  0  0  0  0  0  0  0  0
    1.6500   -3.3000    0.0000 F   0  0  0  0  0  0  0  0  0  0  0  0
    0.0000   -3.3000    0.0000 F   0  0  0  0  0  0  0  0  0  0  0  0
    0.8250   -2.4750    0.0000 C   0  0  0  0  0  0  0  0  0  0  0  0
    1.6500   -2.4750    0.0000 F   0  0  0  0  0  0  0  0  0  0  0  0
    0.0000   -2.4750    0.0000 F   0  0  0  0  0  0  0  0  0  0  0  0
    0.8250   -1.6500    0.0000 C   0  0  0  0  0  0  0  0  0  0  0  0
    1.6500   -1.6500    0.0000 F   0  0  0  0  0  0  0  0  0  0  0  0
    0.0000   -1.6500    0.0000 F   0  0  0  0  0  0  0  0  0  0  0  0
    0.8250   -0.8250    0.0000 C   0  0  0  0  0  0  0  0  0  0  0  0
    1.6500   -0.8250    0.0000 F   0  0  0  0  0  0  0  0  0  0  0  0
    0.0000   -0.8250    0.0000 F   0  0  0  0  0  0  0  0  0  0  0  0
    0.8250    0.0000    0.0000 C   0  0  0  0  0  0  0  0  0  0  0  0
    0.8250    0.8250    0.0000 F   0  0  0  0  0  0  0  0  0  0  0  0
    1.6500   -0.0000    0.0000 F   0  0  0  0  0  0  0  0  0  0  0  0
    0.0000    0.0000    0.0000 F   0  0  0  0  0  0  0  0  0  0  0  0
  1  2  2  0  0  0  0
  2  3  2  0  0  0  0
  2  4  1  0  0  0  0
  2  5  1  0  0  0  0
  5  6  1  0  0  0  0
  5  7  1  0  0  0  0
  5  8  1  0  0  0  0
  8  9  1  0  0  0  0
  8 10  1  0  0  0  0
  8 11  1  0  0  0  0
 11 12  1  0  0  0  0
 11 13  1  0  0  0  0
 11 14  1  0  0  0  0
 14 15  1  0  0  0  0
 14 16  1  0  0  0  0
 14 17  1  0  0  0  0
 17 18  1  0  0  0  0
 17 19  1  0  0  0  0
 17 20  1  0  0  0  0
 20 21  1  0  0  0  0
 20 22  1  0  0  0  0
 20 23  1  0  0  0  0
 23 24  1  0  0  0  0
 23 25  1  0  0  0  0
 23 26  1  0  0  0  0
 26 27  1  0  0  0  0
 26 28  1  0  0  0  0
 26 29  1  0  0  0  0
M  END
> <activity>
104.6

> <InChiKey>
YFSUTJLHUFNCNZ-UHFFFAOYSA-N

$$$$

  Mrv2220 08292413132D          

  7  6  0  0  0  0            999 V2000
    0.1105   -1.2375    0.0000 O   0  0  0  0  0  0  0  0  0  0  0  0
    0.8250   -0.8250    0.0000 C   0  0  0  0  0  0  0  0  0  0  0  0
    1.5395   -1.2375    0.0000 O   0  0  0  0  0  0  0  0  0  0  0  0
    0.8250    0.0000    0.0000 C   0  0  0  0  0  0  0  0  0  0  0  0
    0.8250    0.8250    0.0000 Cl  0  0  0  0  0  0  0  0  0  0  0  0
    1.6500   -0.0000    0.0000 Cl  0  0  0  0  0  0  0  0  0  0  0  0
    0.0000    0.0000    0.0000 Cl  0  0  0  0  0  0  0  0  0  0  0  0
  1  2  2  0  0  0  0
  2  3  1  0  0  0  0
  2  4  1  0  0  0  0
  4  5  1  0  0  0  0
  4  6  1  0  0  0  0
  4  7  1  0  0  0  0
M  END
> <activity>
-0.30000000000000004

> <InChiKey>
YNJBWRMUSHSURL-UHFFFAOYSA-N

$$$$

  Mrv2220 08292413132D          

 10 11  0  0  0  0            999 V2000
   -0.1712   -0.6979    0.0000 S   0  0  0  0  0  0  0  0  0  0  0  0
    0.6538   -0.6979    0.0000 C   0  0  0  0  0  0  0  0  0  0  0  0
    1.1387   -0.0305    0.0000 N   0  0  0  0  0  0  0  0  0  0  0  0
    1.9233   -0.2854    0.0000 C   0  0  0  0  0  0  0  0  0  0  0  0
    2.6378    0.1271    0.0000 C   0  0  0  0  0  0  0  0  0  0  0  0
    3.3523   -0.2854    0.0000 C   0  0  0  0  0  0  0  0  0  0  0  0
    3.3523   -1.1104    0.0000 C   0  0  0  0  0  0  0  0  0  0  0  0
    2.6378   -1.5229    0.0000 C   0  0  0  0  0  0  0  0  0  0  0  0
    1.9233   -1.1104    0.0000 C   0  0  0  0  0  0  0  0  0  0  0  0
    1.1387   -1.3654    0.0000 S   0  0  0  0  0  0  0  0  0  0  0  0
  1  2  1  0  0  0  0
  2  3  4  0  0  0  0
  3  4  4  0  0  0  0
  4  5  4  0  0  0  0
  5  6  4  0  0  0  0
  6  7  4  0  0  0  0
  7  8  4  0  0  0  0
  8  9  4  0  0  0  0
  4  9  4  0  0  0  0
  9 10  4  0  0  0  0
  2 10  4  0  0  0  0
M  END
> <activity>
98.65

> <InChiKey>
YXIWHUQXZSMYRE-UHFFFAOYSA-N

$$$$

  Mrv2220 08292413132D          

 10 11  0  0  0  0            999 V2000
    2.5423    1.5837    0.0000 C   0  0  0  0  0  0  0  0  0  0  0  0
    2.1267    0.8710    0.0000 C   0  0  0  0  0  0  0  0  0  0  0  0
    2.5362    0.1547    0.0000 C   0  0  0  0  0  0  0  0  0  0  0  0
    2.1206   -0.5580    0.0000 C   0  0  0  0  0  0  0  0  0  0  0  0
    1.2957   -0.5544    0.0000 C   0  0  0  0  0  0  0  0  0  0  0  0
    1.2326    0.1301    0.0000 C   0  0  0  0  0  0  0  0  0  0  0  0
    1.3017    0.8745    0.0000 C   0  0  0  0  0  0  0  0  0  0  0  0
    0.8862    0.1618    0.0000 C   0  0  0  0  0  0  0  0  0  0  0  0
    0.1594    0.5522    0.0000 C   0  0  0  0  0  0  0  0  0  0  0  0
    0.1561   -0.2224    0.0000 C   0  0  0  0  0  0  0  0  0  0  0  0
  1  2  2  0  0  0  0
  2  3  1  0  0  0  0
  3  4  1  0  0  0  0
  4  5  1  0  0  0  0
  5  6  1  0  0  0  0
  6  7  1  0  0  0  0
  2  7  1  0  0  0  0
  7  8  1  0  0  0  0
  5  8  1  0  0  0  0
  8  9  1  0  0  0  0
  8 10  1  0  0  0  0
M  END
> <activity>
12.3

> <InChiKey>
WTARULDDTDQWMU-UHFFFAOYSA-N

$$$$

  Mrv2220 08292413132D          

 22 23  0  0  0  0            999 V2000
   -4.2868   -4.1250    0.0000 C   0  0  0  0  0  0  0  0  0  0  0  0
   -3.5724   -4.5375    0.0000 O   0  0  0  0  0  0  0  0  0  0  0  0
   -2.8579   -4.1250    0.0000 C   0  0  0  0  0  0  0  0  0  0  0  0
   -2.8579   -3.3000    0.0000 O   0  0  0  0  0  0  0  0  0  0  0  0
   -2.1434   -4.5375    0.0000 C   0  0  0  0  0  0  0  0  0  0  0  0
   -2.1434   -5.3625    0.0000 C   0  0  0  0  0  0  0  0  0  0  0  0
   -1.4289   -4.1250    0.0000 O   0  0  0  0  0  0  0  0  0  0  0  0
   -0.7145   -4.5375    0.0000 C   0  0  0  0  0  0  0  0  0  0  0  0
    0.0000   -4.1250    0.0000 C   0  0  0  0  0  0  0  0  0  0  0  0
    0.7145   -4.5375    0.0000 C   0  0  0  0  0  0  0  0  0  0  0  0
    0.7145   -5.3625    0.0000 C   0  0  0  0  0  0  0  0  0  0  0  0
    1.4289   -5.7750    0.0000 O   0  0  0  0  0  0  0  0  0  0  0  0
    2.1434   -5.3625    0.0000 C   0  0  0  0  0  0  0  0  0  0  0  0
    2.1434   -4.5375    0.0000 C   0  0  0  0  0  0  0  0  0  0  0  0
    2.8579   -4.1250    0.0000 C   0  0  0  0  0  0  0  0  0  0  0  0
    3.5724   -4.5375    0.0000 C   0  0  0  0  0  0  0  0  0  0  0  0
    4.2868   -4.1250    0.0000 Cl  0  0  0  0  0  0  0  0  0  0  0  0
    3.5724   -5.3625    0.0000 C   0  0  0  0  0  0  0  0  0  0  0  0
    2.8579   -5.7750    0.0000 C   0  0  0  0  0  0  0  0  0  0  0  0
    2.8579   -6.6000    0.0000 Cl  0  0  0  0  0  0  0  0  0  0  0  0
    0.0000   -5.7750    0.0000 C   0  0  0  0  0  0  0  0  0  0  0  0
   -0.7145   -5.3625    0.0000 C   0  0  0  0  0  0  0  0  0  0  0  0
  1  2  1  0  0  0  0
  2  3  1  0  0  0  0
  3  4  2  0  0  0  0
  3  5  1  0  0  0  0
  5  6  1  0  0  0  0
  5  7  1  0  0  0  0
  7  8  1  0  0  0  0
  8  9  4  0  0  0  0
  9 10  4  0  0  0  0
 10 11  4  0  0  0  0
 11 12  1  0  0  0  0
 12 13  1  0  0  0  0
 13 14  4  0  0  0  0
 14 15  4  0  0  0  0
 15 16  4  0  0  0  0
 16 17  1  0  0  0  0
 16 18  4  0  0  0  0
 18 19  4  0  0  0  0
 13 19  4  0  0  0  0
 19 20  1  0  0  0  0
 11 21  4  0  0  0  0
 21 22  4  0  0  0  0
  8 22  4  0  0  0  0
M  END
> <activity>
94.1

> <InChiKey>
BACHBFVBHLGWSL-UHFFFAOYSA-N

$$$$

  Mrv2220 08292413132D          

 21 20  0  0  0  0            999 V2000
    9.1855    6.1283    0.0000 C   0  0  0  0  0  0  0  0  0  0  0  0
    9.9000    5.7158    0.0000 C   0  0  0  0  0  0  0  0  0  0  0  0
   10.6145    6.1283    0.0000 C   0  0  0  0  0  0  0  0  0  0  0  0
   11.3289    5.7158    0.0000 C   0  0  0  0  0  0  0  0  0  0  0  0
   12.0434    6.1283    0.0000 C   0  0  0  0  0  0  0  0  0  0  0  0
   12.7579    5.7158    0.0000 C   0  0  0  0  0  0  0  0  0  0  0  0
   13.4724    6.1283    0.0000 C   0  0  0  0  0  0  0  0  0  0  0  0
   14.1868    5.7158    0.0000 C   0  0  0  0  0  0  0  0  0  0  0  0
   14.9013    6.1283    0.0000 C   0  0  0  0  0  0  0  0  0  0  0  0
   15.6158    5.7158    0.0000 C   0  0  0  0  0  0  0  0  0  0  0  0
   16.3302    6.1283    0.0000 C   0  0  0  0  0  0  0  0  0  0  0  0
   17.0447    5.7158    0.0000 C   0  0  0  0  0  0  0  0  0  0  0  0
   17.7592    6.1283    0.0000 C   0  0  0  0  0  0  0  0  0  0  0  0
   18.4737    5.7158    0.0000 C   0  0  0  0  0  0  0  0  0  0  0  0
   18.4737    4.8908    0.0000 O   0  0  0  0  0  0  0  0  0  0  0  0
   19.1881    6.1283    0.0000 O   0  0  0  0  0  0  0  0  0  0  0  0
   19.9026    5.7158    0.0000 C   0  0  0  0  0  0  0  0  0  0  0  0
   20.6171    6.1283    0.0000 C   0  0  0  0  0  0  0  0  0  0  0  0
   20.6171    6.9533    0.0000 O   0  0  0  0  0  0  0  0  0  0  0  0
   21.3315    5.7158    0.0000 C   0  0  0  0  0  0  0  0  0  0  0  0
   22.0460    6.1283    0.0000 O   0  0  0  0  0  0  0  0  0  0  0  0
  1  2  1  0  0  0  0
  2  3  1  0  0  0  0
  3  4  1  0  0  0  0
  4  5  1  0  0  0  0
  5  6  1  0  0  0  0
  6  7  1  0  0  0  0
  7  8  1  0  0  0  0
  8  9  1  0  0  0  0
  9 10  1  0  0  0  0
 10 11  1  0  0  0  0
 11 12  1  0  0  0  0
 12 13  1  0  0  0  0
 13 14  1  0  0  0  0
 14 15  2  0  0  0  0
 14 16  1  0  0  0  0
 16 17  1  0  0  0  0
 17 18  1  0  0  0  0
 18 19  1  0  0  0  0
 18 20  1  0  0  0  0
 20 21  1  0  0  0  0
M  END
> <activity>
38.1

> <InChiKey>
DCBSHORRWZKAKO-UHFFFAOYSA-N

$$$$

  Mrv2220 08292413132D          

 19 19  0  0  0  0            999 V2000
    4.6652   -5.0357    0.0000 C   0  0  0  0  0  0  0  0  0  0  0  0
    5.3797   -4.6232    0.0000 C   0  0  0  0  0  0  0  0  0  0  0  0
    6.0942   -5.0357    0.0000 C   0  0  0  0  0  0  0  0  0  0  0  0
    6.8086   -4.6232    0.0000 C   0  0  0  0  0  0  0  0  0  0  0  0
    7.5231   -5.0357    0.0000 C   0  0  0  0  0  0  0  0  0  0  0  0
    8.2376   -4.6232    0.0000 C   0  0  0  0  0  0  0  0  0  0  0  0
    8.9521   -5.0357    0.0000 C   0  0  0  0  0  0  0  0  0  0  0  0
    9.6665   -4.6232    0.0000 C   0  0  0  0  0  0  0  0  0  0  0  0
   10.3810   -5.0357    0.0000 C   0  0  0  0  0  0  0  0  0  0  0  0
   11.0955   -4.6232    0.0000 C   0  0  0  0  0  0  0  0  0  0  0  0
   11.8099   -5.0357    0.0000 C   0  0  0  0  0  0  0  0  0  0  0  0
   12.5244   -4.6232    0.0000 C   0  0  0  0  0  0  0  0  0  0  0  0
   13.2389   -5.0357    0.0000 C   0  0  0  0  0  0  0  0  0  0  0  0
   13.9926   -4.7001    0.0000 C   0  0  0  0  0  0  0  0  0  0  0  0
   14.5446   -5.3132    0.0000 C   0  0  0  0  0  0  0  0  0  0  0  0
   15.3651   -5.2270    0.0000 O   0  0  0  0  0  0  0  0  0  0  0  0
   14.1321   -6.0277    0.0000 O   0  0  0  0  0  0  0  0  0  0  0  0
   13.3251   -5.8562    0.0000 C   0  0  0  0  0  0  0  0  0  0  0  0
   12.7120   -6.4082    0.0000 O   0  0  0  0  0  0  0  0  0  0  0  0
  1  2  1  0  0  0  0
  2  3  1  0  0  0  0
  3  4  1  0  0  0  0
  4  5  1  0  0  0  0
  5  6  1  0  0  0  0
  6  7  1  0  0  0  0
  7  8  1  0  0  0  0
  8  9  1  0  0  0  0
 10  9  1  4  0  0  0
 10 11  2  0  0  0  0
 11 12  1  0  0  0  0
 12 13  1  0  0  0  0
 13 14  1  0  0  0  0
 14 15  1  0  0  0  0
 15 16  2  0  0  0  0
 15 17  1  0  0  0  0
 17 18  1  0  0  0  0
 13 18  1  0  0  0  0
 18 19  2  0  0  0  0
M  END
> <activity>
98.4

> <InChiKey>
UYCICMIUKYEYEU-UHFFFAOYSA-N

$$$$

  Mrv2220 08292413132D          

  7  6  0  0  0  0            999 V2000
    2.4750    1.4289    0.0000 C   0  0  0  0  0  0  0  0  0  0  0  0
    2.0625    0.7145    0.0000 C   0  0  0  0  0  0  0  0  0  0  0  0
    1.2375    0.7145    0.0000 C   0  0  0  0  0  0  0  0  0  0  0  0
    0.8250    0.0000    0.0000 C   0  0  0  0  0  0  0  0  0  0  0  0
    0.0000    0.0000    0.0000 C   0  0  0  0  0  0  0  0  0  0  0  0
   -0.4125   -0.7145    0.0000 C   0  0  0  0  0  0  0  0  0  0  0  0
    0.0000   -1.4289    0.0000 O   0  0  0  0  0  0  0  0  0  0  0  0
  1  2  1  0  0  0  0
  2  3  1  0  0  0  0
  4  3  1  4  0  0  0
  4  5  2  0  0  0  0
  5  6  1  0  0  0  0
  6  7  2  0  0  0  0
M  END
> <activity>
52.2

> <InChiKey>
MBDOYVRWFFCFHM-UHFFFAOYSA-N

$$$$

  Mrv2220 08292413132D          

  9  9  0  0  0  0            999 V2000
    0.5678    1.9393    0.0000 C   0  0  0  0  0  0  0  0  0  0  0  0
    0.5678    1.1143    0.0000 C   0  0  0  0  0  0  0  0  0  0  0  0
    1.2352    0.6294    0.0000 C   0  0  0  0  0  0  0  0  0  0  0  0
    0.9803   -0.1553    0.0000 C   0  0  0  0  0  0  0  0  0  0  0  0
    1.4652   -0.8227    0.0000 C   0  0  0  0  0  0  0  0  0  0  0  0
    0.1553   -0.1553    0.0000 N   0  0  0  0  0  0  0  0  0  0  0  0
   -0.3297   -0.8227    0.0000 C   0  0  0  0  0  0  0  0  0  0  0  0
    0.0059   -1.5764    0.0000 O   0  0  0  0  0  0  0  0  0  0  0  0
   -0.0997    0.6294    0.0000 N   0  0  0  0  0  0  0  0  0  0  0  0
  1  2  1  0  0  0  0
  2  3  4  0  0  0  0
  3  4  4  0  0  0  0
  4  5  1  0  0  0  0
  4  6  4  0  0  0  0
  6  7  1  0  0  0  0
  7  8  1  0  0  0  0
  6  9  4  0  0  0  0
  2  9  4  0  0  0  0
M  END
> <activity>
32.8

> <InChiKey>
OBENDWOJIFFDLZ-UHFFFAOYSA-N

$$$$

  Mrv2220 08292413132D          

 10  9  0  0  0  0            999 V2000
   -2.3349    1.1270    0.0000 C   0  0  0  0  0  0  0  0  0  0  0  0
   -1.6204    0.7145    0.0000 C   0  0  0  0  0  0  0  0  0  0  0  0
   -0.9059    1.1270    0.0000 C   0  0  0  0  0  0  0  0  0  0  0  0
   -0.1914    0.7145    0.0000 C   0  0  0  0  0  0  0  0  0  0  0  0
    0.5230    1.1270    0.0000 C   0  0  0  0  0  0  0  0  0  0  0  0
    1.2375    0.7145    0.0000 C   0  0  0  0  0  0  0  0  0  0  0  0
    1.9520    1.1270    0.0000 O   0  0  0  0  0  0  0  0  0  0  0  0
    2.6664    0.7145    0.0000 C   0  0  0  0  0  0  0  0  0  0  0  0
    3.3809    1.1270    0.0000 C   0  0  0  0  0  0  0  0  0  0  0  0
    2.6664   -0.1105    0.0000 O   0  0  0  0  0  0  0  0  0  0  0  0
  1  2  1  0  0  0  0
  3  2  1  4  0  0  0
  3  4  2  0  0  0  0
  4  5  1  0  0  0  0
  5  6  1  0  0  0  0
  6  7  1  0  0  0  0
  7  8  1  0  0  0  0
  8  9  1  0  0  0  0
  8 10  2  0  0  0  0
M  END
> <activity>
14.0

> <InChiKey>
NPFVOOAXDOBMCE-UHFFFAOYSA-N

$$$$

  Mrv2220 08292413132D          

 11 10  0  0  0  0            999 V2000
   -0.1914    0.7145    0.0000 C   0  0  0  0  0  0  0  0  0  0  0  0
    0.5230    1.1270    0.0000 C   0  0  0  0  0  0  0  0  0  0  0  0
    1.2375    0.7145    0.0000 C   0  0  0  0  0  0  0  0  0  0  0  0
    1.9520    1.1270    0.0000 C   0  0  0  0  0  0  0  0  0  0  0  0
    2.6664    0.7145    0.0000 C   0  0  0  0  0  0  0  0  0  0  0  0
    3.3809    1.1270    0.0000 C   0  0  0  0  0  0  0  0  0  0  0  0
    4.0954    0.7145    0.0000 C   0  0  0  0  0  0  0  0  0  0  0  0
    4.8099    1.1270    0.0000 C   0  0  0  0  0  0  0  0  0  0  0  0
    4.8099    1.9520    0.0000 C   0  0  0  0  0  0  0  0  0  0  0  0
    5.5243    2.3645    0.0000 C   0  0  0  0  0  0  0  0  0  0  0  0
    5.5243    3.1895    0.0000 O   0  0  0  0  0  0  0  0  0  0  0  0
  1  2  1  0  0  0  0
  2  3  1  0  0  0  0
  3  4  1  0  0  0  0
  4  5  1  0  0  0  0
  6  5  1  4  0  0  0
  6  7  2  0  0  0  0
  7  8  1  0  0  0  0
  8  9  1  0  0  0  0
  9 10  1  0  0  0  0
 10 11  2  0  0  0  0
M  END
> <activity>
69.6

> <InChiKey>
CWRKZMLUDFBPAO-UHFFFAOYSA-N

$$$$

  Mrv2220 08292413132D          

 13 12  0  0  0  0            999 V2000
    1.5691    5.0309    0.0000 C   0  0  0  0  0  0  0  0  0  0  0  0
    2.2836    4.6184    0.0000 C   0  0  0  0  0  0  0  0  0  0  0  0
    2.2836    3.7934    0.0000 C   0  0  0  0  0  0  0  0  0  0  0  0
    2.9980    3.3809    0.0000 C   0  0  0  0  0  0  0  0  0  0  0  0
    2.9980    2.5559    0.0000 C   0  0  0  0  0  0  0  0  0  0  0  0
    3.7125    2.1434    0.0000 C   0  0  0  0  0  0  0  0  0  0  0  0
    4.4270    2.5559    0.0000 C   0  0  0  0  0  0  0  0  0  0  0  0
    5.1414    2.1434    0.0000 C   0  0  0  0  0  0  0  0  0  0  0  0
    5.8559    2.5559    0.0000 C   0  0  0  0  0  0  0  0  0  0  0  0
    6.5704    2.1434    0.0000 C   0  0  0  0  0  0  0  0  0  0  0  0
    7.2849    2.5559    0.0000 C   0  0  0  0  0  0  0  0  0  0  0  0
    7.9993    2.1434    0.0000 C   0  0  0  0  0  0  0  0  0  0  0  0
    8.7138    2.5559    0.0000 O   0  0  0  0  0  0  0  0  0  0  0  0
  2  1  1  4  0  0  0
  2  3  2  0  0  0  0
  4  3  1  4  0  0  0
  4  5  2  0  0  0  0
  5  6  1  0  0  0  0
  6  7  1  0  0  0  0
  7  8  1  0  0  0  0
  8  9  1  0  0  0  0
  9 10  1  0  0  0  0
 10 11  1  0  0  0  0
 11 12  1  0  0  0  0
 12 13  1  0  0  0  0
M  END
> <activity>
61.9

> <InChiKey>
CSWBSLXBXRFNST-UHFFFAOYSA-N

$$$$

  Mrv2220 08292413132D          

 10 12  0  0  0  0            999 V2000
   -1.2695    0.4125    0.0000 C   0  0  0  0  0  0  0  0  0  0  0  0
   -0.7846   -0.2549    0.0000 C   0  0  0  0  0  0  0  0  0  0  0  0
   -0.0000   -0.0000    0.0000 C   0  0  0  0  0  0  0  0  0  0  0  0
    0.7145   -0.4125    0.0000 C   0  0  0  0  0  0  0  0  0  0  0  0
    1.4289    0.0000    0.0000 C   0  0  0  0  0  0  0  0  0  0  0  0
    1.4289    0.8250    0.0000 C   0  0  0  0  0  0  0  0  0  0  0  0
    0.7145    1.2375    0.0000 C   0  0  0  0  0  0  0  0  0  0  0  0
    0.5082    0.4125    0.0000 C   0  0  0  0  0  0  0  0  0  0  0  0
    0.0000    0.8250    0.0000 C   0  0  0  0  0  0  0  0  0  0  0  0
   -0.7846    1.0799    0.0000 C   0  0  0  0  0  0  0  0  0  0  0  0
  1  2  2  0  0  0  0
  2  3  1  0  0  0  0
  3  4  1  0  0  0  0
  4  5  1  0  0  0  0
  5  6  1  0  0  0  0
  6  7  1  0  0  0  0
  7  8  1  0  0  0  0
  4  8  1  0  0  0  0
  7  9  1  0  0  0  0
  3  9  1  0  0  0  0
  9 10  1  0  0  0  0
  1 10  1  0  0  0  0
M  END
> <activity>
75.5

> <InChiKey>
HANKSFAYJLDDKP-UHFFFAOYSA-N

$$$$

  Mrv2220 08292413132D          

  7  6  0  0  0  0            999 V2000
    2.0625    0.7145    0.0000 C   0  0  0  0  0  0  0  0  0  0  0  0
    1.2375    0.7145    0.0000 C   0  0  0  0  0  0  0  0  0  0  0  0
    0.8250    0.0000    0.0000 C   0  0  0  0  0  0  0  0  0  0  0  0
    0.0000    0.0000    0.0000 C   0  0  0  0  0  0  0  0  0  0  0  0
   -0.4125   -0.7145    0.0000 C   0  0  0  0  0  0  0  0  0  0  0  0
   -1.2375   -0.7145    0.0000 C   0  0  0  0  0  0  0  0  0  0  0  0
   -1.6500   -1.4289    0.0000 O   0  0  0  0  0  0  0  0  0  0  0  0
  1  2  1  0  0  0  0
  3  2  1  4  0  0  0
  3  4  2  0  0  0  0
  4  5  1  0  0  0  0
  5  6  1  0  0  0  0
  6  7  1  0  0  0  0
M  END
> <activity>
19.0

> <InChiKey>
UFLHIIWVXFIJGU-UHFFFAOYSA-N

$$$$

  Mrv2220 08292413132D          

 21 22  0  0  0  0            999 V2000
   -0.7145   -0.4125    0.0000 C   0  0  0  0  0  0  0  0  0  0  0  0
   -0.7145   -1.2375    0.0000 C   0  0  0  0  0  0  0  0  0  0  0  0
    0.0000   -1.6500    0.0000 C   0  0  0  0  0  0  0  0  0  0  0  0
    0.0000   -2.4750    0.0000 C   0  0  0  0  0  0  0  0  0  0  0  0
   -0.7145   -2.8875    0.0000 C   0  0  0  0  0  0  0  0  0  0  0  0
   -1.4289   -2.4750    0.0000 C   0  0  0  0  0  0  0  0  0  0  0  0
   -2.1434   -2.8875    0.0000 N   0  0  0  0  0  0  0  0  0  0  0  0
   -2.1434   -3.7125    0.0000 C   0  0  0  0  0  0  0  0  0  0  0  0
   -1.4289   -4.1250    0.0000 C   0  0  0  0  0  0  0  0  0  0  0  0
   -1.4289   -4.9500    0.0000 C   0  0  0  0  0  0  0  0  0  0  0  0
   -0.7145   -5.3625    0.0000 Cl  0  0  0  0  0  0  0  0  0  0  0  0
   -2.1434   -5.3625    0.0000 N   0  0  0  0  0  0  0  0  0  0  0  0
   -2.8579   -4.9500    0.0000 C   0  0  0  0  0  0  0  0  0  0  0  0
   -3.5724   -5.3625    0.0000 S   0  0  0  0  0  0  0  0  0  0  0  0
   -3.5724   -6.1875    0.0000 C   0  0  0  0  0  0  0  0  0  0  0  0
   -4.2868   -6.6000    0.0000 C   0  0  0  0  0  0  0  0  0  0  0  0
   -4.2868   -7.4250    0.0000 O   0  0  0  0  0  0  0  0  0  0  0  0
   -5.0013   -6.1875    0.0000 O   0  0  0  0  0  0  0  0  0  0  0  0
   -2.8579   -4.1250    0.0000 N   0  0  0  0  0  0  0  0  0  0  0  0
   -1.4289   -1.6500    0.0000 C   0  0  0  0  0  0  0  0  0  0  0  0
   -2.1434   -1.2375    0.0000 C   0  0  0  0  0  0  0  0  0  0  0  0
  1  2  1  0  0  0  0
  2  3  4  0  0  0  0
  3  4  4  0  0  0  0
  4  5  4  0  0  0  0
  5  6  4  0  0  0  0
  6  7  1  0  0  0  0
  7  8  1  0  0  0  0
  8  9  4  0  0  0  0
  9 10  4  0  0  0  0
 10 11  1  0  0  0  0
 10 12  4  0  0  0  0
 12 13  4  0  0  0  0
 13 14  1  0  0  0  0
 14 15  1  0  0  0  0
 15 16  1  0  0  0  0
 16 17  2  0  0  0  0
 16 18  1  0  0  0  0
 13 19  4  0  0  0  0
  8 19  4  0  0  0  0
  6 20  4  0  0  0  0
  2 20  4  0  0  0  0
 20 21  1  0  0  0  0
M  END
> <activity>
94.3

> <InChiKey>
SZRPDCCEHVWOJX-UHFFFAOYSA-N

$$$$

  Mrv2220 08292413132D          

 18 19  0  0  0  0            999 V2000
    2.1434   -0.4125    0.0000 Cl  0  0  0  0  0  0  0  0  0  0  0  0
    2.1434   -1.2375    0.0000 C   0  0  0  0  0  0  0  0  0  0  0  0
    2.8579   -1.6500    0.0000 C   0  0  0  0  0  0  0  0  0  0  0  0
    2.8579   -2.4750    0.0000 C   0  0  0  0  0  0  0  0  0  0  0  0
    2.1434   -2.8875    0.0000 C   0  0  0  0  0  0  0  0  0  0  0  0
    2.1434   -3.7125    0.0000 C   0  0  0  0  0  0  0  0  0  0  0  0
    1.4289   -4.1250    0.0000 C   0  0  0  0  0  0  0  0  0  0  0  0
    1.4289   -4.9500    0.0000 C   0  0  0  0  0  0  0  0  0  0  0  0
    0.7145   -5.3625    0.0000 C   0  0  0  0  0  0  0  0  0  0  0  0
   -0.0000   -4.9500    0.0000 C   0  0  0  0  0  0  0  0  0  0  0  0
    0.0000   -4.1250    0.0000 C   0  0  0  0  0  0  0  0  0  0  0  0
    0.7145   -3.7125    0.0000 C   0  0  0  0  0  0  0  0  0  0  0  0
    0.7145   -2.8875    0.0000 Cl  0  0  0  0  0  0  0  0  0  0  0  0
    2.8579   -4.1250    0.0000 C   0  0  0  0  0  0  0  0  0  0  0  0
    2.8579   -4.9500    0.0000 Cl  0  0  0  0  0  0  0  0  0  0  0  0
    3.5724   -3.7125    0.0000 Cl  0  0  0  0  0  0  0  0  0  0  0  0
    1.4289   -2.4750    0.0000 C   0  0  0  0  0  0  0  0  0  0  0  0
    1.4289   -1.6500    0.0000 C   0  0  0  0  0  0  0  0  0  0  0  0
  1  2  1  0  0  0  0
  2  3  4  0  0  0  0
  3  4  4  0  0  0  0
  4  5  4  0  0  0  0
  5  6  1  0  0  0  0
  6  7  1  0  0  0  0
  7  8  4  0  0  0  0
  8  9  4  0  0  0  0
  9 10  4  0  0  0  0
 10 11  4  0  0  0  0
 11 12  4  0  0  0  0
  7 12  4  0  0  0  0
 12 13  1  0  0  0  0
  6 14  1  0  0  0  0
 14 15  1  0  0  0  0
 14 16  1  0  0  0  0
  5 17  4  0  0  0  0
 17 18  4  0  0  0  0
  2 18  4  0  0  0  0
M  END
> <activity>
28.0

> <InChiKey>
JWBOIMRXGHLCPP-UHFFFAOYSA-N

$$$$

  Mrv2220 08292413132D          

 11 11  0  0  0  0            999 V2000
    1.1198    1.7274    0.0000 C   0  0  0  0  0  0  0  0  0  0  0  0
    0.5678    1.1143    0.0000 C   0  0  0  0  0  0  0  0  0  0  0  0
    0.0157    1.7274    0.0000 C   0  0  0  0  0  0  0  0  0  0  0  0
    1.2352    0.6294    0.0000 C   0  0  0  0  0  0  0  0  0  0  0  0
    2.0198    0.8843    0.0000 O   0  0  0  0  0  0  0  0  0  0  0  0
    0.9803   -0.1553    0.0000 N   0  0  0  0  0  0  0  0  0  0  0  0
    0.1553   -0.1553    0.0000 C   0  0  0  0  0  0  0  0  0  0  0  0
   -0.3297   -0.8227    0.0000 O   0  0  0  0  0  0  0  0  0  0  0  0
   -0.0997    0.6294    0.0000 N   0  0  0  0  0  0  0  0  0  0  0  0
   -0.8843    0.8843    0.0000 C   0  0  0  0  0  0  0  0  0  0  0  0
   -1.4974    0.3323    0.0000 O   0  0  0  0  0  0  0  0  0  0  0  0
  1  2  1  0  0  0  0
  2  3  1  0  0  0  0
  2  4  1  0  0  0  0
  4  5  2  0  0  0  0
  4  6  1  0  0  0  0
  6  7  1  0  0  0  0
  7  8  2  0  0  0  0
  7  9  1  0  0  0  0
  2  9  1  0  0  0  0
  9 10  1  0  0  0  0
 10 11  1  0  0  0  0
M  END
> <activity>
3.9

> <InChiKey>
SIQZJFKTROUNPI-UHFFFAOYSA-N

$$$$

  Mrv2220 08292413132D          

 25 27  0  0  0  0            999 V2000
    4.0668    3.1729    0.0000 C   0  0  0  0  0  0  0  0  0  0  0  0
    4.0668    2.3479    0.0000 O   0  0  0  0  0  0  0  0  0  0  0  0
    3.3523    1.9354    0.0000 C   0  0  0  0  0  0  0  0  0  0  0  0
    3.3523    1.1104    0.0000 C   0  0  0  0  0  0  0  0  0  0  0  0
    2.6378    0.6979    0.0000 C   0  0  0  0  0  0  0  0  0  0  0  0
    1.9233    1.1104    0.0000 C   0  0  0  0  0  0  0  0  0  0  0  0
    1.9233    1.9354    0.0000 C   0  0  0  0  0  0  0  0  0  0  0  0
    2.6378    2.3479    0.0000 C   0  0  0  0  0  0  0  0  0  0  0  0
    1.1387    2.1904    0.0000 C   0  0  0  0  0  0  0  0  0  0  0  0
    0.8838    2.9750    0.0000 C   0  0  0  0  0  0  0  0  0  0  0  0
    0.0768    3.1465    0.0000 C   0  0  0  0  0  0  0  0  0  0  0  0
   -0.4752    2.5334    0.0000 O   0  0  0  0  0  0  0  0  0  0  0  0
   -0.1781    3.9312    0.0000 O   0  0  0  0  0  0  0  0  0  0  0  0
    0.6538    1.5229    0.0000 C   0  0  0  0  0  0  0  0  0  0  0  0
   -0.1712    1.5229    0.0000 C   0  0  0  0  0  0  0  0  0  0  0  0
    1.1387    0.8555    0.0000 N   0  0  0  0  0  0  0  0  0  0  0  0
    0.8838    0.0709    0.0000 C   0  0  0  0  0  0  0  0  0  0  0  0
    1.4358   -0.5422    0.0000 O   0  0  0  0  0  0  0  0  0  0  0  0
    0.0768   -0.1006    0.0000 C   0  0  0  0  0  0  0  0  0  0  0  0
   -0.1781   -0.8853    0.0000 C   0  0  0  0  0  0  0  0  0  0  0  0
   -0.9851   -1.0568    0.0000 C   0  0  0  0  0  0  0  0  0  0  0  0
   -1.5371   -0.4437    0.0000 C   0  0  0  0  0  0  0  0  0  0  0  0
   -2.3441   -0.6152    0.0000 Cl  0  0  0  0  0  0  0  0  0  0  0  0
   -1.2822    0.3409    0.0000 C   0  0  0  0  0  0  0  0  0  0  0  0
   -0.4752    0.5124    0.0000 C   0  0  0  0  0  0  0  0  0  0  0  0
  1  2  1  0  0  0  0
  2  3  1  0  0  0  0
  3  4  4  0  0  0  0
  4  5  4  0  0  0  0
  5  6  4  0  0  0  0
  6  7  4  0  0  0  0
  7  8  4  0  0  0  0
  3  8  4  0  0  0  0
  7  9  4  0  0  0  0
  9 10  1  0  0  0  0
 10 11  1  0  0  0  0
 11 12  2  0  0  0  0
 11 13  1  0  0  0  0
  9 14  4  0  0  0  0
 14 15  1  0  0  0  0
 14 16  4  0  0  0  0
  6 16  4  0  0  0  0
 16 17  1  0  0  0  0
 17 18  2  0  0  0  0
 17 19  1  0  0  0  0
 19 20  4  0  0  0  0
 20 21  4  0  0  0  0
 21 22  4  0  0  0  0
 22 23  1  0  0  0  0
 22 24  4  0  0  0  0
 24 25  4  0  0  0  0
 19 25  4  0  0  0  0
M  END
> <activity>
101.7

> <InChiKey>
CGIGDMFJXJATDK-UHFFFAOYSA-N

$$$$

  Mrv2220 08292413132D          

 17 16  0  0  0  0            999 V2000
    2.2539    3.0789    0.0000 C   0  0  0  0  0  0  0  0  0  0  0  0
    1.5395    2.6664    0.0000 C   0  0  0  0  0  0  0  0  0  0  0  0
    1.5395    1.8414    0.0000 O   0  0  0  0  0  0  0  0  0  0  0  0
    0.8250    1.4289    0.0000 Si  0  0  0  0  0  0  0  0  0  0  0  0
    0.1105    1.0164    0.0000 C   0  0  0  0  0  0  0  0  0  0  0  0
   -0.6039    1.4289    0.0000 C   0  0  0  0  0  0  0  0  0  0  0  0
   -1.3184    1.0164    0.0000 C   0  0  0  0  0  0  0  0  0  0  0  0
   -1.3184    0.1914    0.0000 N   0  0  0  0  0  0  0  0  0  0  0  0
   -2.0329   -0.2211    0.0000 C   0  0  0  0  0  0  0  0  0  0  0  0
   -2.0329   -1.0461    0.0000 N   0  0  0  0  0  0  0  0  0  0  0  0
   -2.7474    0.1914    0.0000 O   0  0  0  0  0  0  0  0  0  0  0  0
    0.4125    2.1434    0.0000 O   0  0  0  0  0  0  0  0  0  0  0  0
   -0.4125    2.1434    0.0000 C   0  0  0  0  0  0  0  0  0  0  0  0
   -0.8250    2.8579    0.0000 C   0  0  0  0  0  0  0  0  0  0  0  0
    1.2375    0.7145    0.0000 O   0  0  0  0  0  0  0  0  0  0  0  0
    0.8250    0.0000    0.0000 C   0  0  0  0  0  0  0  0  0  0  0  0
    0.0000    0.0000    0.0000 C   0  0  0  0  0  0  0  0  0  0  0  0
  1  2  1  0  0  0  0
  2  3  1  0  0  0  0
  3  4  1  0  0  0  0
  4  5  1  0  0  0  0
  5  6  1  0  0  0  0
  6  7  1  0  0  0  0
  7  8  1  0  0  0  0
  8  9  1  0  0  0  0
  9 10  1  0  0  0  0
  9 11  2  0  0  0  0
  4 12  1  0  0  0  0
 12 13  1  0  0  0  0
 13 14  1  0  0  0  0
  4 15  1  0  0  0  0
 15 16  1  0  0  0  0
 16 17  1  0  0  0  0
M  END
> <activity>
-29.5

> <InChiKey>
LVNLBBGBASVLLI-UHFFFAOYSA-N

$$$$

  Mrv2220 08292413132D          

  5  4  0  0  0  0            999 V2000
    2.0625   -0.7145    0.0000 C   0  0  0  0  0  0  0  0  0  0  0  0
    1.2375   -0.7145    0.0000 C   0  0  0  0  0  0  0  0  0  0  0  0
    0.8250   -1.4289    0.0000 O   0  0  0  0  0  0  0  0  0  0  0  0
    0.8250    0.0000    0.0000 C   0  0  0  0  0  0  0  0  0  0  0  0
    0.0000    0.0000    0.0000 N   0  0  0  0  0  0  0  0  0  0  0  0
  1  2  1  0  0  0  0
  2  3  1  0  0  0  0
  2  4  1  0  0  0  0
  4  5  1  0  0  0  0
M  END
> <activity>
5.5

> <InChiKey>
HXKKHQJGJAFBHI-UHFFFAOYSA-N

$$$$

  Mrv2220 08292413132D          

 11 11  0  0  0  0            999 V2000
    1.1198    1.7274    0.0000 C   0  0  0  0  0  0  0  0  0  0  0  0
    0.5678    1.1143    0.0000 C   0  0  0  0  0  0  0  0  0  0  0  0
    0.0157    1.7274    0.0000 C   0  0  0  0  0  0  0  0  0  0  0  0
    1.2352    0.6294    0.0000 C   0  0  0  0  0  0  0  0  0  0  0  0
    2.0198    0.8843    0.0000 O   0  0  0  0  0  0  0  0  0  0  0  0
    0.9803   -0.1553    0.0000 N   0  0  0  0  0  0  0  0  0  0  0  0
    1.4652   -0.8227    0.0000 Cl  0  0  0  0  0  0  0  0  0  0  0  0
    0.1553   -0.1553    0.0000 C   0  0  0  0  0  0  0  0  0  0  0  0
   -0.3297   -0.8227    0.0000 O   0  0  0  0  0  0  0  0  0  0  0  0
   -0.0997    0.6294    0.0000 N   0  0  0  0  0  0  0  0  0  0  0  0
   -0.8843    0.8843    0.0000 Br  0  0  0  0  0  0  0  0  0  0  0  0
  1  2  1  0  0  0  0
  2  3  1  0  0  0  0
  2  4  1  0  0  0  0
  4  5  2  0  0  0  0
  4  6  1  0  0  0  0
  6  7  1  0  0  0  0
  6  8  1  0  0  0  0
  8  9  2  0  0  0  0
  8 10  1  0  0  0  0
  2 10  1  0  0  0  0
 10 11  1  0  0  0  0
M  END
> <activity>
33.5

> <InChiKey>
PIEXCQIOSMOEOU-UHFFFAOYSA-N

$$$$

  Mrv2220 08292413132D          

 11 11  0  0  0  0            999 V2000
    0.7145    2.8875    0.0000 F   0  0  0  0  0  0  0  0  0  0  0  0
    0.7145    2.0625    0.0000 C   0  0  0  0  0  0  0  0  0  0  0  0
   -0.1105    2.0625    0.0000 F   0  0  0  0  0  0  0  0  0  0  0  0
    1.5395    2.0625    0.0000 F   0  0  0  0  0  0  0  0  0  0  0  0
    0.7145    1.2375    0.0000 C   0  0  0  0  0  0  0  0  0  0  0  0
    1.4289    0.8250    0.0000 C   0  0  0  0  0  0  0  0  0  0  0  0
    1.4289   -0.0000    0.0000 C   0  0  0  0  0  0  0  0  0  0  0  0
    0.7145   -0.4125    0.0000 C   0  0  0  0  0  0  0  0  0  0  0  0
    0.7145   -1.2375    0.0000 Cl  0  0  0  0  0  0  0  0  0  0  0  0
    0.0000    0.0000    0.0000 C   0  0  0  0  0  0  0  0  0  0  0  0
    0.0000    0.8250    0.0000 C   0  0  0  0  0  0  0  0  0  0  0  0
  1  2  1  0  0  0  0
  2  3  1  0  0  0  0
  2  4  1  0  0  0  0
  2  5  1  0  0  0  0
  5  6  4  0  0  0  0
  6  7  4  0  0  0  0
  7  8  4  0  0  0  0
  8  9  1  0  0  0  0
  8 10  4  0  0  0  0
 10 11  4  0  0  0  0
  5 11  4  0  0  0  0
M  END
> <activity>
8.9

> <InChiKey>
QULYNCCPRWKEMF-UHFFFAOYSA-N

$$$$

  Mrv2220 08292413132D          

 10 10  0  0  0  0            999 V2000
    0.0000    2.4750    0.0000 O   0  0  0  0  0  0  0  0  0  0  0  0
    0.7145    2.0625    0.0000 N   0  3  0  0  0  0  0  0  0  0  0  0
    1.4289    2.4750    0.0000 O   0  5  0  0  0  0  0  0  0  0  0  0
    0.7145    1.2375    0.0000 C   0  0  0  0  0  0  0  0  0  0  0  0
    1.4289    0.8250    0.0000 C   0  0  0  0  0  0  0  0  0  0  0  0
    1.4289   -0.0000    0.0000 C   0  0  0  0  0  0  0  0  0  0  0  0
    0.7145   -0.4125    0.0000 C   0  0  0  0  0  0  0  0  0  0  0  0
    0.7145   -1.2375    0.0000 Cl  0  0  0  0  0  0  0  0  0  0  0  0
    0.0000    0.0000    0.0000 C   0  0  0  0  0  0  0  0  0  0  0  0
    0.0000    0.8250    0.0000 C   0  0  0  0  0  0  0  0  0  0  0  0
  1  2  2  0  0  0  0
  2  3  1  0  0  0  0
  2  4  1  0  0  0  0
  4  5  4  0  0  0  0
  5  6  4  0  0  0  0
  6  7  4  0  0  0  0
  7  8  1  0  0  0  0
  7  9  4  0  0  0  0
  9 10  4  0  0  0  0
  4 10  4  0  0  0  0
M  CHG  2   2   1   3  -1
M  END
> <activity>
28.0

> <InChiKey>
CZGCEKJOLUNIFY-UHFFFAOYSA-N

$$$$

  Mrv2220 08292413132D          

 11 10  0  0  0  0            999 V2000
    4.2355    3.2704    0.0000 C   0  0  0  0  0  0  0  0  0  0  0  0
    4.9500    2.8579    0.0000 C   0  0  0  0  0  0  0  0  0  0  0  0
    5.6645    3.2704    0.0000 C   0  0  0  0  0  0  0  0  0  0  0  0
    6.3789    2.8579    0.0000 C   0  0  0  0  0  0  0  0  0  0  0  0
    7.0934    3.2704    0.0000 C   0  0  0  0  0  0  0  0  0  0  0  0
    7.8079    2.8579    0.0000 C   0  0  0  0  0  0  0  0  0  0  0  0
    8.5224    3.2704    0.0000 C   0  0  0  0  0  0  0  0  0  0  0  0
    9.2368    2.8579    0.0000 C   0  0  0  0  0  0  0  0  0  0  0  0
    9.9513    3.2704    0.0000 C   0  0  0  0  0  0  0  0  0  0  0  0
   10.6658    2.8579    0.0000 C   0  0  0  0  0  0  0  0  0  0  0  0
   11.3802    3.2704    0.0000 N   0  0  0  0  0  0  0  0  0  0  0  0
  1  2  1  0  0  0  0
  2  3  1  0  0  0  0
  3  4  1  0  0  0  0
  4  5  1  0  0  0  0
  5  6  1  0  0  0  0
  6  7  1  0  0  0  0
  7  8  1  0  0  0  0
  8  9  1  0  0  0  0
  9 10  1  0  0  0  0
 10 11  1  0  0  0  0
M  END
> <activity>
10.1

> <InChiKey>
MHZGKXUYDGKKIU-UHFFFAOYSA-N

$$$$

  Mrv2220 08292413132D          

 11 10  0  0  0  0            999 V2000
    4.2355    3.2704    0.0000 C   0  0  0  0  0  0  0  0  0  0  0  0
    4.9500    2.8579    0.0000 C   0  0  0  0  0  0  0  0  0  0  0  0
    5.6645    3.2704    0.0000 C   0  0  0  0  0  0  0  0  0  0  0  0
    6.3789    2.8579    0.0000 C   0  0  0  0  0  0  0  0  0  0  0  0
    7.0934    3.2704    0.0000 C   0  0  0  0  0  0  0  0  0  0  0  0
    7.8079    2.8579    0.0000 C   0  0  0  0  0  0  0  0  0  0  0  0
    8.5224    3.2704    0.0000 C   0  0  0  0  0  0  0  0  0  0  0  0
    9.2368    2.8579    0.0000 C   0  0  0  0  0  0  0  0  0  0  0  0
    9.9513    3.2704    0.0000 C   0  0  0  0  0  0  0  0  0  0  0  0
   10.6658    2.8579    0.0000 C   0  0  0  0  0  0  0  0  0  0  0  0
   11.3802    3.2704    0.0000 O   0  0  0  0  0  0  0  0  0  0  0  0
  1  2  1  0  0  0  0
  2  3  1  0  0  0  0
  3  4  1  0  0  0  0
  4  5  1  0  0  0  0
  5  6  1  0  0  0  0
  6  7  1  0  0  0  0
  7  8  1  0  0  0  0
  8  9  1  0  0  0  0
  9 10  1  0  0  0  0
 10 11  1  0  0  0  0
M  END
> <activity>
69.5

> <InChiKey>
MWKFXSUHUHTGQN-UHFFFAOYSA-N

$$$$

  Mrv2220 08292413132D          

 13 12  0  0  0  0            999 V2000
    5.4730    3.9849    0.0000 C   0  0  0  0  0  0  0  0  0  0  0  0
    6.1875    3.5724    0.0000 C   0  0  0  0  0  0  0  0  0  0  0  0
    6.9020    3.9849    0.0000 C   0  0  0  0  0  0  0  0  0  0  0  0
    7.6164    3.5724    0.0000 C   0  0  0  0  0  0  0  0  0  0  0  0
    8.3309    3.9849    0.0000 C   0  0  0  0  0  0  0  0  0  0  0  0
    9.0454    3.5724    0.0000 C   0  0  0  0  0  0  0  0  0  0  0  0
    9.7599    3.9849    0.0000 C   0  0  0  0  0  0  0  0  0  0  0  0
   10.4743    3.5724    0.0000 C   0  0  0  0  0  0  0  0  0  0  0  0
   11.1888    3.9849    0.0000 C   0  0  0  0  0  0  0  0  0  0  0  0
   11.9033    3.5724    0.0000 C   0  0  0  0  0  0  0  0  0  0  0  0
   12.6177    3.9849    0.0000 C   0  0  0  0  0  0  0  0  0  0  0  0
   13.3322    3.5724    0.0000 C   0  0  0  0  0  0  0  0  0  0  0  0
   14.0467    3.9849    0.0000 S   0  0  0  0  0  0  0  0  0  0  0  0
  1  2  1  0  0  0  0
  2  3  1  0  0  0  0
  3  4  1  0  0  0  0
  4  5  1  0  0  0  0
  5  6  1  0  0  0  0
  6  7  1  0  0  0  0
  7  8  1  0  0  0  0
  8  9  1  0  0  0  0
  9 10  1  0  0  0  0
 10 11  1  0  0  0  0
 11 12  1  0  0  0  0
 12 13  1  0  0  0  0
M  END
> <activity>
5.1

> <InChiKey>
WNAHIZMDSQCWRP-UHFFFAOYSA-N

$$$$

  Mrv2220 08292413132D          

 13 12  0  0  0  0            999 V2000
    5.4730    3.9849    0.0000 C   0  0  0  0  0  0  0  0  0  0  0  0
    6.1875    3.5724    0.0000 C   0  0  0  0  0  0  0  0  0  0  0  0
    6.9020    3.9849    0.0000 C   0  0  0  0  0  0  0  0  0  0  0  0
    7.6164    3.5724    0.0000 C   0  0  0  0  0  0  0  0  0  0  0  0
    8.3309    3.9849    0.0000 C   0  0  0  0  0  0  0  0  0  0  0  0
    9.0454    3.5724    0.0000 C   0  0  0  0  0  0  0  0  0  0  0  0
    9.7599    3.9849    0.0000 C   0  0  0  0  0  0  0  0  0  0  0  0
   10.4743    3.5724    0.0000 C   0  0  0  0  0  0  0  0  0  0  0  0
   11.1888    3.9849    0.0000 C   0  0  0  0  0  0  0  0  0  0  0  0
   11.9033    3.5724    0.0000 C   0  0  0  0  0  0  0  0  0  0  0  0
   12.6177    3.9849    0.0000 C   0  0  0  0  0  0  0  0  0  0  0  0
   13.3322    3.5724    0.0000 C   0  0  0  0  0  0  0  0  0  0  0  0
   14.0467    3.9849    0.0000 O   0  0  0  0  0  0  0  0  0  0  0  0
  1  2  1  0  0  0  0
  2  3  1  0  0  0  0
  3  4  1  0  0  0  0
  4  5  1  0  0  0  0
  5  6  1  0  0  0  0
  6  7  1  0  0  0  0
  7  8  1  0  0  0  0
  8  9  1  0  0  0  0
  9 10  1  0  0  0  0
 10 11  1  0  0  0  0
 11 12  1  0  0  0  0
 12 13  1  0  0  0  0
M  END
> <activity>
71.3

> <InChiKey>
LQZZUXJYWNFBMV-UHFFFAOYSA-N

$$$$

  Mrv2220 08292413132D          

 18 18  0  0  0  0            999 V2000
    5.6346   -6.2328    0.0000 C   0  0  0  0  0  0  0  0  0  0  0  0
    6.3491   -5.8203    0.0000 C   0  0  0  0  0  0  0  0  0  0  0  0
    7.0636   -6.2328    0.0000 C   0  0  0  0  0  0  0  0  0  0  0  0
    7.7781   -5.8203    0.0000 C   0  0  0  0  0  0  0  0  0  0  0  0
    8.4925   -6.2328    0.0000 C   0  0  0  0  0  0  0  0  0  0  0  0
    9.2070   -5.8203    0.0000 C   0  0  0  0  0  0  0  0  0  0  0  0
    9.9215   -6.2328    0.0000 C   0  0  0  0  0  0  0  0  0  0  0  0
   10.6359   -5.8203    0.0000 C   0  0  0  0  0  0  0  0  0  0  0  0
   11.3504   -6.2328    0.0000 C   0  0  0  0  0  0  0  0  0  0  0  0
   12.0649   -5.8203    0.0000 C   0  0  0  0  0  0  0  0  0  0  0  0
   12.7794   -6.2328    0.0000 C   0  0  0  0  0  0  0  0  0  0  0  0
   13.4938   -5.8203    0.0000 C   0  0  0  0  0  0  0  0  0  0  0  0
   14.2083   -6.2328    0.0000 N   0  0  0  0  0  0  0  0  0  0  0  0
   14.9620   -5.8972    0.0000 C   0  0  0  0  0  0  0  0  0  0  0  0
   15.5140   -6.5103    0.0000 C   0  0  0  0  0  0  0  0  0  0  0  0
   15.1015   -7.2248    0.0000 C   0  0  0  0  0  0  0  0  0  0  0  0
   14.2945   -7.0533    0.0000 C   0  0  0  0  0  0  0  0  0  0  0  0
   13.6814   -7.6053    0.0000 O   0  0  0  0  0  0  0  0  0  0  0  0
  1  2  1  0  0  0  0
  2  3  1  0  0  0  0
  3  4  1  0  0  0  0
  4  5  1  0  0  0  0
  5  6  1  0  0  0  0
  6  7  1  0  0  0  0
  7  8  1  0  0  0  0
  8  9  1  0  0  0  0
  9 10  1  0  0  0  0
 10 11  1  0  0  0  0
 11 12  1  0  0  0  0
 12 13  1  0  0  0  0
 13 14  1  0  0  0  0
 14 15  1  0  0  0  0
 15 16  1  0  0  0  0
 16 17  1  0  0  0  0
 13 17  1  0  0  0  0
 17 18  2  0  0  0  0
M  END
> <activity>
29.7

> <InChiKey>
NJPQAIBZIHNJDO-UHFFFAOYSA-N

$$$$

  Mrv2220 08292413132D          

  7  6  0  0  0  0            999 V2000
   -0.1914    0.7145    0.0000 C   0  0  0  0  0  0  0  0  0  0  0  0
    0.5230    1.1270    0.0000 C   0  0  0  0  0  0  0  0  0  0  0  0
    1.2375    0.7145    0.0000 O   0  0  0  0  0  0  0  0  0  0  0  0
    1.9520    1.1270    0.0000 C   0  0  0  0  0  0  0  0  0  0  0  0
    2.6664    0.7145    0.0000 C   0  0  0  0  0  0  0  0  0  0  0  0
    3.3809    1.1270    0.0000 C   0  0  0  0  0  0  0  0  0  0  0  0
    2.6664   -0.1105    0.0000 O   0  0  0  0  0  0  0  0  0  0  0  0
  1  2  1  0  0  0  0
  2  3  1  0  0  0  0
  3  4  1  0  0  0  0
  4  5  1  0  0  0  0
  5  6  1  0  0  0  0
  5  7  1  0  0  0  0
M  END
> <activity>
3.0

> <InChiKey>
JOLQKTGDSGKSKJ-UHFFFAOYSA-N

$$$$

  Mrv2220 08292413132D          

 17 16  0  0  0  0            999 V2000
    7.9480    5.4138    0.0000 C   0  0  0  0  0  0  0  0  0  0  0  0
    8.6625    5.0013    0.0000 C   0  0  0  0  0  0  0  0  0  0  0  0
    9.3770    5.4138    0.0000 C   0  0  0  0  0  0  0  0  0  0  0  0
   10.0914    5.0013    0.0000 C   0  0  0  0  0  0  0  0  0  0  0  0
   10.8059    5.4138    0.0000 C   0  0  0  0  0  0  0  0  0  0  0  0
   11.5204    5.0013    0.0000 C   0  0  0  0  0  0  0  0  0  0  0  0
   12.2349    5.4138    0.0000 C   0  0  0  0  0  0  0  0  0  0  0  0
   12.9493    5.0013    0.0000 C   0  0  0  0  0  0  0  0  0  0  0  0
   13.6638    5.4138    0.0000 C   0  0  0  0  0  0  0  0  0  0  0  0
   14.3783    5.0013    0.0000 C   0  0  0  0  0  0  0  0  0  0  0  0
   15.0927    5.4138    0.0000 C   0  0  0  0  0  0  0  0  0  0  0  0
   15.8072    5.0013    0.0000 C   0  0  0  0  0  0  0  0  0  0  0  0
   16.5217    5.4138    0.0000 C   0  0  0  0  0  0  0  0  0  0  0  0
   17.2362    5.0013    0.0000 C   0  0  0  0  0  0  0  0  0  0  0  0
   17.9506    5.4138    0.0000 C   0  0  0  0  0  0  0  0  0  0  0  0
   18.6651    5.0013    0.0000 C   0  0  0  0  0  0  0  0  0  0  0  0
   19.3796    5.4138    0.0000 O   0  0  0  0  0  0  0  0  0  0  0  0
  1  2  1  0  0  0  0
  2  3  1  0  0  0  0
  3  4  1  0  0  0  0
  4  5  1  0  0  0  0
  5  6  1  0  0  0  0
  6  7  1  0  0  0  0
  7  8  1  0  0  0  0
  8  9  1  0  0  0  0
  9 10  1  0  0  0  0
 10 11  1  0  0  0  0
 11 12  1  0  0  0  0
 12 13  1  0  0  0  0
 13 14  1  0  0  0  0
 14 15  1  0  0  0  0
 15 16  1  0  0  0  0
 16 17  1  0  0  0  0
M  END
> <activity>
-22.4

> <InChiKey>
BXWNKGSJHAJOGX-UHFFFAOYSA-N

$$$$

  Mrv2220 08292413132D          

  7  6  0  0  0  0            999 V2000
    1.7605    1.8414    0.0000 C   0  0  0  0  0  0  0  0  0  0  0  0
    2.4750    1.4289    0.0000 C   0  0  0  0  0  0  0  0  0  0  0  0
    3.1895    1.8414    0.0000 C   0  0  0  0  0  0  0  0  0  0  0  0
    3.9039    1.4289    0.0000 C   0  0  0  0  0  0  0  0  0  0  0  0
    4.6184    1.8414    0.0000 C   0  0  0  0  0  0  0  0  0  0  0  0
    5.3329    1.4289    0.0000 C   0  0  0  0  0  0  0  0  0  0  0  0
    6.0474    1.8414    0.0000 O   0  0  0  0  0  0  0  0  0  0  0  0
  1  2  1  0  0  0  0
  2  3  1  0  0  0  0
  3  4  1  0  0  0  0
  4  5  1  0  0  0  0
  5  6  1  0  0  0  0
  6  7  1  0  0  0  0
M  END
> <activity>
10.5

> <InChiKey>
ZSIAUFGUXNUGDI-UHFFFAOYSA-N

$$$$

  Mrv2220 08292413132D          

  6  5  0  0  0  0            999 V2000
    1.2375    2.1434    0.0000 C   0  0  0  0  0  0  0  0  0  0  0  0
    0.8250    1.4289    0.0000 O   0  0  0  0  0  0  0  0  0  0  0  0
    1.2375    0.7145    0.0000 C   0  0  0  0  0  0  0  0  0  0  0  0
    0.8250    0.0000    0.0000 C   0  0  0  0  0  0  0  0  0  0  0  0
    1.2375   -0.7145    0.0000 C   0  0  0  0  0  0  0  0  0  0  0  0
    0.0000    0.0000    0.0000 O   0  0  0  0  0  0  0  0  0  0  0  0
  1  2  1  0  0  0  0
  2  3  1  0  0  0  0
  3  4  1  0  0  0  0
  4  5  1  0  0  0  0
  4  6  1  0  0  0  0
M  END
> <activity>
7.9

> <InChiKey>
ARXJGSRGQADJSQ-UHFFFAOYSA-N

$$$$

  Mrv2220 08292413132D          

 13 13  0  0  0  0            999 V2000
    0.0000    3.3000    0.0000 C   0  0  0  0  0  0  0  0  0  0  0  0
    0.7145    2.8875    0.0000 C   0  0  0  0  0  0  0  0  0  0  0  0
    0.7145    2.0625    0.0000 C   0  0  0  0  0  0  0  0  0  0  0  0
   -0.1105    2.0625    0.0000 C   0  0  0  0  0  0  0  0  0  0  0  0
    1.5395    2.0625    0.0000 C   0  0  0  0  0  0  0  0  0  0  0  0
    0.7145    1.2375    0.0000 C   0  0  0  0  0  0  0  0  0  0  0  0
    1.4289    0.8250    0.0000 C   0  0  0  0  0  0  0  0  0  0  0  0
    1.4289   -0.0000    0.0000 C   0  0  0  0  0  0  0  0  0  0  0  0
    0.7145   -0.4125    0.0000 C   0  0  0  0  0  0  0  0  0  0  0  0
    0.7145   -1.2375    0.0000 O   0  0  0  0  0  0  0  0  0  0  0  0
    1.4289   -1.6500    0.0000 C   0  0  0  0  0  0  0  0  0  0  0  0
    0.0000    0.0000    0.0000 C   0  0  0  0  0  0  0  0  0  0  0  0
    0.0000    0.8250    0.0000 C   0  0  0  0  0  0  0  0  0  0  0  0
  1  2  1  0  0  0  0
  2  3  1  0  0  0  0
  3  4  1  0  0  0  0
  3  5  1  0  0  0  0
  3  6  1  0  0  0  0
  6  7  1  0  0  0  0
  7  8  1  0  0  0  0
  8  9  1  0  0  0  0
  9 10  1  0  0  0  0
 10 11  1  0  0  0  0
  9 12  1  0  0  0  0
 12 13  1  0  0  0  0
  6 13  1  0  0  0  0
M  END
> <activity>
34.2

> <InChiKey>
AJULSUVNFQEPHC-UHFFFAOYSA-N

$$$$

  Mrv2220 08292413132D          

 24 26  0  0  0  0            999 V2000
    0.7145   -0.4125    0.0000 C   0  0  0  0  0  0  0  0  0  0  0  0
    0.7145   -1.2375    0.0000 N   0  0  0  0  0  0  0  0  0  0  0  0
    1.4289   -1.6500    0.0000 C   0  0  0  0  0  0  0  0  0  0  0  0
    1.4289   -2.4750    0.0000 C   0  0  0  0  0  0  0  0  0  0  0  0
    2.1434   -2.8875    0.0000 C   0  0  0  0  0  0  0  0  0  0  0  0
    2.8579   -2.4750    0.0000 C   0  0  0  0  0  0  0  0  0  0  0  0
    3.5724   -2.8875    0.0000 C   0  0  0  0  0  0  0  0  0  0  0  0
    3.5724   -3.7125    0.0000 C   0  0  0  0  0  0  0  0  0  0  0  0
    2.8579   -4.1250    0.0000 C   0  0  0  0  0  0  0  0  0  0  0  0
    2.1434   -3.7125    0.0000 C   0  0  0  0  0  0  0  0  0  0  0  0
    0.7145   -2.8875    0.0000 C   0  0  0  0  0  0  0  0  0  0  0  0
    0.7145   -3.7125    0.0000 O   0  0  0  0  0  0  0  0  0  0  0  0
    0.0000   -2.4750    0.0000 C   0  0  0  0  0  0  0  0  0  0  0  0
   -0.7145   -2.8875    0.0000 C   0  0  0  0  0  0  0  0  0  0  0  0
   -0.7145   -3.7125    0.0000 C   0  0  0  0  0  0  0  0  0  0  0  0
   -1.4289   -4.1250    0.0000 C   0  0  0  0  0  0  0  0  0  0  0  0
   -2.1434   -3.7125    0.0000 C   0  0  0  0  0  0  0  0  0  0  0  0
   -2.1434   -2.8875    0.0000 C   0  0  0  0  0  0  0  0  0  0  0  0
   -2.8579   -2.4750    0.0000 C   0  0  0  0  0  0  0  0  0  0  0  0
   -3.5724   -2.0625    0.0000 F   0  0  0  0  0  0  0  0  0  0  0  0
   -2.4454   -1.7605    0.0000 F   0  0  0  0  0  0  0  0  0  0  0  0
   -3.2704   -3.1895    0.0000 F   0  0  0  0  0  0  0  0  0  0  0  0
   -1.4289   -2.4750    0.0000 C   0  0  0  0  0  0  0  0  0  0  0  0
    0.0000   -1.6500    0.0000 C   0  0  0  0  0  0  0  0  0  0  0  0
  1  2  1  0  0  0  0
  2  3  4  0  0  0  0
  3  4  4  0  0  0  0
  4  5  1  0  0  0  0
  5  6  4  0  0  0  0
  6  7  4  0  0  0  0
  7  8  4  0  0  0  0
  8  9  4  0  0  0  0
  9 10  4  0  0  0  0
  5 10  4  0  0  0  0
  4 11  4  0  0  0  0
 11 12  2  0  0  0  0
 11 13  4  0  0  0  0
 13 14  1  0  0  0  0
 14 15  4  0  0  0  0
 15 16  4  0  0  0  0
 16 17  4  0  0  0  0
 17 18  4  0  0  0  0
 18 19  1  0  0  0  0
 19 20  1  0  0  0  0
 19 21  1  0  0  0  0
 19 22  1  0  0  0  0
 18 23  4  0  0  0  0
 14 23  4  0  0  0  0
 13 24  4  0  0  0  0
  2 24  4  0  0  0  0
M  END
> <activity>
23.8

> <InChiKey>
YWBVHLJPRPCRSD-UHFFFAOYSA-N

$$$$

  Mrv2220 08292413132D          

 11 12  0  0  0  0            999 V2000
    1.4289   -2.4750    0.0000 C   0  0  0  0  0  0  0  0  0  0  0  0
    1.4289   -1.6500    0.0000 C   0  0  0  0  0  0  0  0  0  0  0  0
    0.7145   -1.2375    0.0000 C   0  0  0  0  0  0  0  0  0  0  0  0
    0.7145   -0.4125    0.0000 C   0  0  0  0  0  0  0  0  0  0  0  0
    1.4289    0.0000    0.0000 C   0  0  0  0  0  0  0  0  0  0  0  0
    2.1434   -0.4125    0.0000 C   0  0  0  0  0  0  0  0  0  0  0  0
    2.8579    0.0000    0.0000 C   0  0  0  0  0  0  0  0  0  0  0  0
    3.5724   -0.4125    0.0000 C   0  0  0  0  0  0  0  0  0  0  0  0
    3.5724   -1.2375    0.0000 C   0  0  0  0  0  0  0  0  0  0  0  0
    2.8579   -1.6500    0.0000 C   0  0  0  0  0  0  0  0  0  0  0  0
    2.1434   -1.2375    0.0000 C   0  0  0  0  0  0  0  0  0  0  0  0
  1  2  1  0  0  0  0
  2  3  4  0  0  0  0
  3  4  4  0  0  0  0
  4  5  4  0  0  0  0
  5  6  4  0  0  0  0
  6  7  4  0  0  0  0
  7  8  4  0  0  0  0
  8  9  4  0  0  0  0
  9 10  4  0  0  0  0
 10 11  4  0  0  0  0
  2 11  4  0  0  0  0
  6 11  4  0  0  0  0
M  END
> <activity>
24.8

> <InChiKey>
QPUYECUOLPXSFR-UHFFFAOYSA-N

$$$$

  Mrv2220 08292413132D          

 19 18  0  0  0  0            999 V2000
    7.9480    5.4138    0.0000 C   0  0  0  0  0  0  0  0  0  0  0  0
    8.6625    5.0013    0.0000 C   0  0  0  0  0  0  0  0  0  0  0  0
    9.3770    5.4138    0.0000 C   0  0  0  0  0  0  0  0  0  0  0  0
   10.0914    5.0013    0.0000 C   0  0  0  0  0  0  0  0  0  0  0  0
   10.8059    5.4138    0.0000 C   0  0  0  0  0  0  0  0  0  0  0  0
   11.5204    5.0013    0.0000 C   0  0  0  0  0  0  0  0  0  0  0  0
   12.2349    5.4138    0.0000 C   0  0  0  0  0  0  0  0  0  0  0  0
   12.9493    5.0013    0.0000 C   0  0  0  0  0  0  0  0  0  0  0  0
   13.6638    5.4138    0.0000 C   0  0  0  0  0  0  0  0  0  0  0  0
   14.3783    5.0013    0.0000 C   0  0  0  0  0  0  0  0  0  0  0  0
   15.0927    5.4138    0.0000 C   0  0  0  0  0  0  0  0  0  0  0  0
   15.8072    5.0013    0.0000 C   0  0  0  0  0  0  0  0  0  0  0  0
   15.8072    4.1763    0.0000 O   0  0  0  0  0  0  0  0  0  0  0  0
   16.5217    5.4138    0.0000 O   0  0  0  0  0  0  0  0  0  0  0  0
   17.2362    5.0013    0.0000 C   0  0  0  0  0  0  0  0  0  0  0  0
   17.9506    5.4138    0.0000 C   0  0  0  0  0  0  0  0  0  0  0  0
   17.9506    6.2388    0.0000 O   0  0  0  0  0  0  0  0  0  0  0  0
   18.6651    5.0013    0.0000 C   0  0  0  0  0  0  0  0  0  0  0  0
   19.3796    5.4138    0.0000 O   0  0  0  0  0  0  0  0  0  0  0  0
  1  2  1  0  0  0  0
  2  3  1  0  0  0  0
  3  4  1  0  0  0  0
  4  5  1  0  0  0  0
  5  6  1  0  0  0  0
  6  7  1  0  0  0  0
  7  8  1  0  0  0  0
  8  9  1  0  0  0  0
  9 10  1  0  0  0  0
 10 11  1  0  0  0  0
 11 12  1  0  0  0  0
 12 13  2  0  0  0  0
 12 14  1  0  0  0  0
 14 15  1  0  0  0  0
 15 16  1  0  0  0  0
 16 17  1  0  0  0  0
 16 18  1  0  0  0  0
 18 19  1  0  0  0  0
M  END
> <activity>
52.4

> <InChiKey>
ARIWANIATODDMH-UHFFFAOYSA-N

$$$$

  Mrv2220 08292413132D          

 14 15  0  0  0  0            999 V2000
    0.7145   -3.7125    0.0000 O   0  0  0  0  0  0  0  0  0  0  0  0
    0.7145   -2.8875    0.0000 C   0  0  0  0  0  0  0  0  0  0  0  0
    0.0000   -2.4750    0.0000 O   0  0  0  0  0  0  0  0  0  0  0  0
    1.4289   -2.4750    0.0000 C   0  0  0  0  0  0  0  0  0  0  0  0
    1.4289   -1.6500    0.0000 C   0  0  0  0  0  0  0  0  0  0  0  0
    0.7145   -1.2375    0.0000 C   0  0  0  0  0  0  0  0  0  0  0  0
    0.7145   -0.4125    0.0000 C   0  0  0  0  0  0  0  0  0  0  0  0
    1.4289    0.0000    0.0000 C   0  0  0  0  0  0  0  0  0  0  0  0
    2.1434   -0.4125    0.0000 C   0  0  0  0  0  0  0  0  0  0  0  0
    2.8579    0.0000    0.0000 C   0  0  0  0  0  0  0  0  0  0  0  0
    3.5724   -0.4125    0.0000 C   0  0  0  0  0  0  0  0  0  0  0  0
    3.5724   -1.2375    0.0000 C   0  0  0  0  0  0  0  0  0  0  0  0
    2.8579   -1.6500    0.0000 C   0  0  0  0  0  0  0  0  0  0  0  0
    2.1434   -1.2375    0.0000 C   0  0  0  0  0  0  0  0  0  0  0  0
  1  2  2  0  0  0  0
  2  3  1  0  0  0  0
  2  4  1  0  0  0  0
  4  5  1  0  0  0  0
  5  6  4  0  0  0  0
  6  7  4  0  0  0  0
  7  8  4  0  0  0  0
  8  9  4  0  0  0  0
  9 10  4  0  0  0  0
 10 11  4  0  0  0  0
 11 12  4  0  0  0  0
 12 13  4  0  0  0  0
 13 14  4  0  0  0  0
  5 14  4  0  0  0  0
  9 14  4  0  0  0  0
M  END
> <activity>
63.0

> <InChiKey>
PRPINYUDVPFIRX-UHFFFAOYSA-N

$$$$

  Mrv2220 08292413132D          

 11 12  0  0  0  0            999 V2000
    1.4289   -2.4750    0.0000 O   0  0  0  0  0  0  0  0  0  0  0  0
    1.4289   -1.6500    0.0000 C   0  0  0  0  0  0  0  0  0  0  0  0
    0.7145   -1.2375    0.0000 C   0  0  0  0  0  0  0  0  0  0  0  0
    0.7145   -0.4125    0.0000 C   0  0  0  0  0  0  0  0  0  0  0  0
    1.4289    0.0000    0.0000 C   0  0  0  0  0  0  0  0  0  0  0  0
    2.1434   -0.4125    0.0000 C   0  0  0  0  0  0  0  0  0  0  0  0
    2.8579    0.0000    0.0000 C   0  0  0  0  0  0  0  0  0  0  0  0
    3.5724   -0.4125    0.0000 C   0  0  0  0  0  0  0  0  0  0  0  0
    3.5724   -1.2375    0.0000 C   0  0  0  0  0  0  0  0  0  0  0  0
    2.8579   -1.6500    0.0000 C   0  0  0  0  0  0  0  0  0  0  0  0
    2.1434   -1.2375    0.0000 C   0  0  0  0  0  0  0  0  0  0  0  0
  1  2  1  0  0  0  0
  2  3  4  0  0  0  0
  3  4  4  0  0  0  0
  4  5  4  0  0  0  0
  5  6  4  0  0  0  0
  6  7  4  0  0  0  0
  7  8  4  0  0  0  0
  8  9  4  0  0  0  0
  9 10  4  0  0  0  0
 10 11  4  0  0  0  0
  2 11  4  0  0  0  0
  6 11  4  0  0  0  0
M  END
> <activity>
90.3

> <InChiKey>
KJCVRFUGPWSIIH-UHFFFAOYSA-N

$$$$

  Mrv2220 08292413132D          

  9  8  0  0  0  0            999 V2000
    2.9980    2.5559    0.0000 C   0  0  0  0  0  0  0  0  0  0  0  0
    3.7125    2.1434    0.0000 C   0  0  0  0  0  0  0  0  0  0  0  0
    4.4270    2.5559    0.0000 C   0  0  0  0  0  0  0  0  0  0  0  0
    5.1414    2.1434    0.0000 C   0  0  0  0  0  0  0  0  0  0  0  0
    5.8559    2.5559    0.0000 C   0  0  0  0  0  0  0  0  0  0  0  0
    6.5704    2.1434    0.0000 C   0  0  0  0  0  0  0  0  0  0  0  0
    7.2849    2.5559    0.0000 C   0  0  0  0  0  0  0  0  0  0  0  0
    7.9993    2.1434    0.0000 C   0  0  0  0  0  0  0  0  0  0  0  0
    8.7138    2.5559    0.0000 O   0  0  0  0  0  0  0  0  0  0  0  0
  1  2  1  0  0  0  0
  2  3  1  0  0  0  0
  3  4  1  0  0  0  0
  4  5  1  0  0  0  0
  5  6  1  0  0  0  0
  6  7  1  0  0  0  0
  7  8  1  0  0  0  0
  8  9  1  0  0  0  0
M  END
> <activity>
35.1

> <InChiKey>
KBPLFHHGFOOTCA-UHFFFAOYSA-N

$$$$

  Mrv2220 08292413132D          

  9  8  0  0  0  0            999 V2000
    1.0461    1.4289    0.0000 C   0  0  0  0  0  0  0  0  0  0  0  0
    1.7605    1.8414    0.0000 C   0  0  0  0  0  0  0  0  0  0  0  0
    2.4750    1.4289    0.0000 C   0  0  0  0  0  0  0  0  0  0  0  0
    2.4750    0.6039    0.0000 O   0  0  0  0  0  0  0  0  0  0  0  0
    3.1895    1.8414    0.0000 C   0  0  0  0  0  0  0  0  0  0  0  0
    3.9039    1.4289    0.0000 C   0  0  0  0  0  0  0  0  0  0  0  0
    4.6184    1.8414    0.0000 C   0  0  0  0  0  0  0  0  0  0  0  0
    5.3329    1.4289    0.0000 C   0  0  0  0  0  0  0  0  0  0  0  0
    6.0474    1.8414    0.0000 C   0  0  0  0  0  0  0  0  0  0  0  0
  1  2  2  0  0  0  0
  2  3  1  0  0  0  0
  3  4  1  0  0  0  0
  3  5  1  0  0  0  0
  5  6  1  0  0  0  0
  6  7  1  0  0  0  0
  7  8  1  0  0  0  0
  8  9  1  0  0  0  0
M  END
> <activity>
14.7

> <InChiKey>
VSMOENVRRABVKN-UHFFFAOYSA-N

$$$$

  Mrv2220 08292413132D          

 14 14  0  0  0  0            999 V2000
    3.5108   -4.3205    0.0000 C   0  0  0  0  0  0  0  0  0  0  0  0
    4.2253   -3.9080    0.0000 C   0  0  0  0  0  0  0  0  0  0  0  0
    4.9398   -4.3205    0.0000 C   0  0  0  0  0  0  0  0  0  0  0  0
    5.6542   -3.9080    0.0000 C   0  0  0  0  0  0  0  0  0  0  0  0
    6.3687   -4.3205    0.0000 C   0  0  0  0  0  0  0  0  0  0  0  0
    7.0832   -3.9080    0.0000 C   0  0  0  0  0  0  0  0  0  0  0  0
    7.7976   -4.3205    0.0000 C   0  0  0  0  0  0  0  0  0  0  0  0
    8.5121   -3.9080    0.0000 C   0  0  0  0  0  0  0  0  0  0  0  0
    9.2266   -4.3205    0.0000 N   0  0  0  0  0  0  0  0  0  0  0  0
    9.9803   -3.9849    0.0000 C   0  0  0  0  0  0  0  0  0  0  0  0
   10.5323   -4.5980    0.0000 C   0  0  0  0  0  0  0  0  0  0  0  0
   10.1198   -5.3125    0.0000 C   0  0  0  0  0  0  0  0  0  0  0  0
    9.3128   -5.1410    0.0000 C   0  0  0  0  0  0  0  0  0  0  0  0
    8.6997   -5.6930    0.0000 O   0  0  0  0  0  0  0  0  0  0  0  0
  1  2  1  0  0  0  0
  2  3  1  0  0  0  0
  3  4  1  0  0  0  0
  4  5  1  0  0  0  0
  5  6  1  0  0  0  0
  6  7  1  0  0  0  0
  7  8  1  0  0  0  0
  8  9  1  0  0  0  0
  9 10  1  0  0  0  0
 10 11  1  0  0  0  0
 11 12  1  0  0  0  0
 12 13  1  0  0  0  0
  9 13  1  0  0  0  0
 13 14  2  0  0  0  0
M  END
> <activity>
19.5

> <InChiKey>
WPPOGHDFAVQKLN-UHFFFAOYSA-N

$$$$

  Mrv2220 08292413132D          

 11 11  0  0  0  0            999 V2000
   -0.7145    3.7125    0.0000 C   0  0  0  0  0  0  0  0  0  0  0  0
    0.0000    3.3000    0.0000 C   0  0  0  0  0  0  0  0  0  0  0  0
    0.7145    3.7125    0.0000 O   0  0  0  0  0  0  0  0  0  0  0  0
    0.0000    2.4750    0.0000 C   0  0  0  0  0  0  0  0  0  0  0  0
    0.7145    2.0625    0.0000 O   0  0  0  0  0  0  0  0  0  0  0  0
    0.7145    1.2375    0.0000 C   0  0  0  0  0  0  0  0  0  0  0  0
    1.4289    0.8250    0.0000 C   0  0  0  0  0  0  0  0  0  0  0  0
    1.4289   -0.0000    0.0000 C   0  0  0  0  0  0  0  0  0  0  0  0
    0.7145   -0.4125    0.0000 C   0  0  0  0  0  0  0  0  0  0  0  0
    0.0000    0.0000    0.0000 C   0  0  0  0  0  0  0  0  0  0  0  0
    0.0000    0.8250    0.0000 C   0  0  0  0  0  0  0  0  0  0  0  0
  1  2  1  0  0  0  0
  2  3  1  0  0  0  0
  2  4  1  0  0  0  0
  4  5  1  0  0  0  0
  5  6  1  0  0  0  0
  6  7  4  0  0  0  0
  7  8  4  0  0  0  0
  8  9  4  0  0  0  0
  9 10  4  0  0  0  0
 10 11  4  0  0  0  0
  6 11  4  0  0  0  0
M  END
> <activity>
9.9

> <InChiKey>
IBLKWZIFZMJLFL-UHFFFAOYSA-N

$$$$

  Mrv2220 08292413132D          

 13 14  0  0  0  0            999 V2000
    0.7145   -0.4125    0.0000 O   0  0  0  0  0  0  0  0  0  0  0  0
    0.7145   -1.2375    0.0000 C   0  0  0  0  0  0  0  0  0  0  0  0
    1.3819   -1.7224    0.0000 C   0  0  0  0  0  0  0  0  0  0  0  0
    1.1270   -2.5070    0.0000 C   0  0  0  0  0  0  0  0  0  0  0  0
    0.3020   -2.5070    0.0000 C   0  0  0  0  0  0  0  0  0  0  0  0
   -0.1830   -3.1745    0.0000 O   0  0  0  0  0  0  0  0  0  0  0  0
    0.0470   -1.7224    0.0000 N   0  0  0  0  0  0  0  0  0  0  0  0
   -0.7376   -1.4675    0.0000 C   0  0  0  0  0  0  0  0  0  0  0  0
   -1.3507   -2.0195    0.0000 C   0  0  0  0  0  0  0  0  0  0  0  0
   -2.1353   -1.7646    0.0000 C   0  0  0  0  0  0  0  0  0  0  0  0
   -2.3068   -0.9576    0.0000 C   0  0  0  0  0  0  0  0  0  0  0  0
   -1.6937   -0.4056    0.0000 C   0  0  0  0  0  0  0  0  0  0  0  0
   -0.9091   -0.6605    0.0000 C   0  0  0  0  0  0  0  0  0  0  0  0
  1  2  2  0  0  0  0
  2  3  1  0  0  0  0
  3  4  2  0  0  0  0
  4  5  1  0  0  0  0
  5  6  2  0  0  0  0
  5  7  1  0  0  0  0
  2  7  1  0  0  0  0
  7  8  1  0  0  0  0
  8  9  4  0  0  0  0
  9 10  4  0  0  0  0
 10 11  4  0  0  0  0
 11 12  4  0  0  0  0
 12 13  4  0  0  0  0
  8 13  4  0  0  0  0
M  END
> <activity>
55.0

> <InChiKey>
HIDBROSJWZYGSZ-UHFFFAOYSA-N

$$$$

  Mrv2220 08292413132D          

 10 10  0  0  0  0            999 V2000
    0.0000    3.3000    0.0000 N   0  0  0  0  0  0  0  0  0  0  0  0
    0.0000    2.4750    0.0000 C   0  0  0  0  0  0  0  0  0  0  0  0
   -0.7145    2.0625    0.0000 O   0  0  0  0  0  0  0  0  0  0  0  0
    0.7145    2.0625    0.0000 N   0  0  0  0  0  0  0  0  0  0  0  0
    0.7145    1.2375    0.0000 C   0  0  0  0  0  0  0  0  0  0  0  0
    1.4289    0.8250    0.0000 C   0  0  0  0  0  0  0  0  0  0  0  0
    1.4289   -0.0000    0.0000 C   0  0  0  0  0  0  0  0  0  0  0  0
    0.7145   -0.4125    0.0000 C   0  0  0  0  0  0  0  0  0  0  0  0
    0.0000    0.0000    0.0000 C   0  0  0  0  0  0  0  0  0  0  0  0
    0.0000    0.8250    0.0000 C   0  0  0  0  0  0  0  0  0  0  0  0
  1  2  1  0  0  0  0
  2  3  2  0  0  0  0
  2  4  1  0  0  0  0
  4  5  1  0  0  0  0
  5  6  4  0  0  0  0
  6  7  4  0  0  0  0
  7  8  4  0  0  0  0
  8  9  4  0  0  0  0
  9 10  4  0  0  0  0
  5 10  4  0  0  0  0
M  END
> <activity>
11.8

> <InChiKey>
LUBJCRLGQSPQNN-UHFFFAOYSA-N

$$$$

  Mrv2220 08292413132D          

  8  7  0  0  0  0            999 V2000
    1.7605    1.8414    0.0000 C   0  0  0  0  0  0  0  0  0  0  0  0
    2.4750    1.4289    0.0000 C   0  0  0  0  0  0  0  0  0  0  0  0
    3.1895    1.8414    0.0000 C   0  0  0  0  0  0  0  0  0  0  0  0
    3.9039    1.4289    0.0000 O   0  0  0  0  0  0  0  0  0  0  0  0
    4.6184    1.8414    0.0000 C   0  0  0  0  0  0  0  0  0  0  0  0
    5.3329    1.4289    0.0000 C   0  0  0  0  0  0  0  0  0  0  0  0
    6.0474    1.8414    0.0000 C   0  0  0  0  0  0  0  0  0  0  0  0
    5.3329    0.6039    0.0000 O   0  0  0  0  0  0  0  0  0  0  0  0
  1  2  1  0  0  0  0
  2  3  1  0  0  0  0
  3  4  1  0  0  0  0
  4  5  1  0  0  0  0
  5  6  1  0  0  0  0
  6  7  1  0  0  0  0
  6  8  1  0  0  0  0
M  END
> <activity>
6.4

> <InChiKey>
FENFUOGYJVOCRY-UHFFFAOYSA-N

$$$$

  Mrv2220 08292413132D          

 14 13  0  0  0  0            999 V2000
    4.7586    3.5724    0.0000 C   0  0  0  0  0  0  0  0  0  0  0  0
    5.4730    3.9849    0.0000 C   0  0  0  0  0  0  0  0  0  0  0  0
    6.1875    3.5724    0.0000 C   0  0  0  0  0  0  0  0  0  0  0  0
    6.9020    3.9849    0.0000 C   0  0  0  0  0  0  0  0  0  0  0  0
    7.6164    3.5724    0.0000 C   0  0  0  0  0  0  0  0  0  0  0  0
    8.3309    3.9849    0.0000 C   0  0  0  0  0  0  0  0  0  0  0  0
    9.0454    3.5724    0.0000 C   0  0  0  0  0  0  0  0  0  0  0  0
    9.7599    3.9849    0.0000 C   0  0  0  0  0  0  0  0  0  0  0  0
   10.4743    3.5724    0.0000 C   0  0  0  0  0  0  0  0  0  0  0  0
   11.1888    3.9849    0.0000 C   0  0  0  0  0  0  0  0  0  0  0  0
   11.9033    3.5724    0.0000 C   0  0  0  0  0  0  0  0  0  0  0  0
   12.6177    3.9849    0.0000 C   0  0  0  0  0  0  0  0  0  0  0  0
   13.3322    3.5724    0.0000 C   0  0  0  0  0  0  0  0  0  0  0  0
   14.0467    3.9849    0.0000 C   0  0  0  0  0  0  0  0  0  0  0  0
  1  2  2  0  0  0  0
  2  3  1  0  0  0  0
  3  4  1  0  0  0  0
  4  5  1  0  0  0  0
  5  6  1  0  0  0  0
  6  7  1  0  0  0  0
  7  8  1  0  0  0  0
  8  9  1  0  0  0  0
  9 10  1  0  0  0  0
 10 11  1  0  0  0  0
 11 12  1  0  0  0  0
 12 13  1  0  0  0  0
 13 14  1  0  0  0  0
M  END
> <activity>
9.6

> <InChiKey>
HFDVRLIODXPAHB-UHFFFAOYSA-N

$$$$

  Mrv2220 08292413132D          

 14 13  0  0  0  0            999 V2000
    4.7586    3.5724    0.0000 C   0  0  0  0  0  0  0  0  0  0  0  0
    5.4730    3.9849    0.0000 C   0  0  0  0  0  0  0  0  0  0  0  0
    6.1875    3.5724    0.0000 C   0  0  0  0  0  0  0  0  0  0  0  0
    6.9020    3.9849    0.0000 C   0  0  0  0  0  0  0  0  0  0  0  0
    7.6164    3.5724    0.0000 C   0  0  0  0  0  0  0  0  0  0  0  0
    8.3309    3.9849    0.0000 C   0  0  0  0  0  0  0  0  0  0  0  0
    9.0454    3.5724    0.0000 C   0  0  0  0  0  0  0  0  0  0  0  0
    9.7599    3.9849    0.0000 C   0  0  0  0  0  0  0  0  0  0  0  0
   10.4743    3.5724    0.0000 C   0  0  0  0  0  0  0  0  0  0  0  0
   11.1888    3.9849    0.0000 C   0  0  0  0  0  0  0  0  0  0  0  0
   11.9033    3.5724    0.0000 C   0  0  0  0  0  0  0  0  0  0  0  0
   12.6177    3.9849    0.0000 C   0  0  0  0  0  0  0  0  0  0  0  0
   13.3322    3.5724    0.0000 C   0  0  0  0  0  0  0  0  0  0  0  0
   14.0467    3.9849    0.0000 O   0  0  0  0  0  0  0  0  0  0  0  0
  1  2  1  0  0  0  0
  2  3  1  0  0  0  0
  3  4  1  0  0  0  0
  4  5  1  0  0  0  0
  5  6  1  0  0  0  0
  6  7  1  0  0  0  0
  7  8  1  0  0  0  0
  8  9  1  0  0  0  0
  9 10  1  0  0  0  0
 10 11  1  0  0  0  0
 11 12  1  0  0  0  0
 12 13  1  0  0  0  0
 13 14  1  0  0  0  0
M  END
> <activity>
46.3

> <InChiKey>
XFRVVPUIAFSTFO-UHFFFAOYSA-N

$$$$

  Mrv2220 08292413132D          

 18 19  0  0  0  0            999 V2000
    2.1434   -0.4125    0.0000 C   0  0  0  0  0  0  0  0  0  0  0  0
    2.1434   -1.2375    0.0000 C   0  0  0  0  0  0  0  0  0  0  0  0
    2.8579   -1.6500    0.0000 C   0  0  0  0  0  0  0  0  0  0  0  0
    2.8579   -2.4750    0.0000 C   0  0  0  0  0  0  0  0  0  0  0  0
    2.1434   -2.8875    0.0000 C   0  0  0  0  0  0  0  0  0  0  0  0
    2.1434   -3.7125    0.0000 C   0  0  0  0  0  0  0  0  0  0  0  0
    2.8579   -4.1250    0.0000 C   0  0  0  0  0  0  0  0  0  0  0  0
    1.4289   -4.1250    0.0000 C   0  0  0  0  0  0  0  0  0  0  0  0
    1.4289   -4.9500    0.0000 C   0  0  0  0  0  0  0  0  0  0  0  0
    0.7145   -5.3625    0.0000 C   0  0  0  0  0  0  0  0  0  0  0  0
   -0.0000   -4.9500    0.0000 C   0  0  0  0  0  0  0  0  0  0  0  0
   -0.7145   -5.3625    0.0000 C   0  0  0  0  0  0  0  0  0  0  0  0
    0.0000   -4.1250    0.0000 C   0  0  0  0  0  0  0  0  0  0  0  0
   -0.7145   -3.7125    0.0000 C   0  0  0  0  0  0  0  0  0  0  0  0
    0.7145   -3.7125    0.0000 C   0  0  0  0  0  0  0  0  0  0  0  0
    1.4289   -2.4750    0.0000 C   0  0  0  0  0  0  0  0  0  0  0  0
    1.4289   -1.6500    0.0000 C   0  0  0  0  0  0  0  0  0  0  0  0
    0.7145   -1.2375    0.0000 C   0  0  0  0  0  0  0  0  0  0  0  0
  1  2  1  0  0  0  0
  2  3  4  0  0  0  0
  3  4  4  0  0  0  0
  4  5  4  0  0  0  0
  5  6  1  0  0  0  0
  6  7  1  0  0  0  0
  6  8  1  0  0  0  0
  8  9  4  0  0  0  0
  9 10  4  0  0  0  0
 10 11  4  0  0  0  0
 11 12  1  0  0  0  0
 11 13  4  0  0  0  0
 13 14  1  0  0  0  0
 13 15  4  0  0  0  0
  8 15  4  0  0  0  0
  5 16  4  0  0  0  0
 16 17  4  0  0  0  0
  2 17  4  0  0  0  0
 17 18  1  0  0  0  0
M  END
> <activity>
41.1

> <InChiKey>
NCSVCMFDHINRJE-UHFFFAOYSA-N

$$$$

  Mrv2220 08292413132D          

 12 11  0  0  0  0            999 V2000
   -0.6039   -0.8250    0.0000 C   0  0  0  0  0  0  0  0  0  0  0  0
    0.1105   -1.2375    0.0000 Si  0  0  0  0  0  0  0  0  0  0  0  0
    0.1105   -2.0625    0.0000 O   0  0  0  0  0  0  0  0  0  0  0  0
   -0.6039   -2.4750    0.0000 Si  0  0  0  0  0  0  0  0  0  0  0  0
   -1.3184   -2.8875    0.0000 C   0  0  0  0  0  0  0  0  0  0  0  0
   -0.1914   -3.1895    0.0000 C   0  0  0  0  0  0  0  0  0  0  0  0
   -1.0164   -1.7605    0.0000 C   0  0  0  0  0  0  0  0  0  0  0  0
    0.8250   -0.8250    0.0000 O   0  0  0  0  0  0  0  0  0  0  0  0
    0.8250    0.0000    0.0000 Si  0  0  0  0  0  0  0  0  0  0  0  0
    0.8250    0.8250    0.0000 C   0  0  0  0  0  0  0  0  0  0  0  0
    1.6500   -0.0000    0.0000 C   0  0  0  0  0  0  0  0  0  0  0  0
    0.0000    0.0000    0.0000 C   0  0  0  0  0  0  0  0  0  0  0  0
  1  2  1  0  0  0  0
  2  3  1  0  0  0  0
  3  4  1  0  0  0  0
  4  5  1  0  0  0  0
  4  6  1  0  0  0  0
  4  7  1  0  0  0  0
  2  8  1  0  0  0  0
  8  9  1  0  0  0  0
  9 10  1  0  0  0  0
  9 11  1  0  0  0  0
  9 12  1  0  0  0  0
M  END
> <activity>
10.6

> <InChiKey>
QNWOFLWXQGHSRH-UHFFFAOYSA-N

$$$$

  Mrv2220 08292413132D          

 20 19  0  0  0  0            999 V2000
    5.0627    1.0005    0.0000 C   0  0  0  0  0  0  0  0  0  0  0  0
    5.8729    1.1565    0.0000 C   0  0  0  0  0  0  0  0  0  0  0  0
    6.1429    1.9360    0.0000 O   0  0  0  0  0  0  0  0  0  0  0  0
    6.4129    0.5328    0.0000 C   0  0  0  0  0  0  0  0  0  0  0  0
    6.1429   -0.2467    0.0000 N   0  0  0  0  0  0  0  0  0  0  0  0
    5.3328   -0.4027    0.0000 C   0  0  0  0  0  0  0  0  0  0  0  0
    5.0627   -1.1822    0.0000 C   0  0  0  0  0  0  0  0  0  0  0  0
    4.2526   -1.3381    0.0000 N   0  0  0  0  0  0  0  0  0  0  0  0
    3.9825   -2.1177    0.0000 C   0  0  0  0  0  0  0  0  0  0  0  0
    4.5226   -2.7413    0.0000 C   0  0  0  0  0  0  0  0  0  0  0  0
    5.3328   -2.5854    0.0000 C   0  0  0  0  0  0  0  0  0  0  0  0
    4.2526   -3.5209    0.0000 O   0  0  0  0  0  0  0  0  0  0  0  0
    3.7125   -0.7145    0.0000 C   0  0  0  0  0  0  0  0  0  0  0  0
    2.9024   -0.8704    0.0000 C   0  0  0  0  0  0  0  0  0  0  0  0
    2.3623   -0.2467    0.0000 C   0  0  0  0  0  0  0  0  0  0  0  0
    2.6323   -1.6499    0.0000 O   0  0  0  0  0  0  0  0  0  0  0  0
    6.6830   -0.8704    0.0000 C   0  0  0  0  0  0  0  0  0  0  0  0
    7.4931   -0.7145    0.0000 C   0  0  0  0  0  0  0  0  0  0  0  0
    7.7632    0.0651    0.0000 C   0  0  0  0  0  0  0  0  0  0  0  0
    8.0332   -1.3381    0.0000 O   0  0  0  0  0  0  0  0  0  0  0  0
  1  2  1  0  0  0  0
  2  3  1  0  0  0  0
  2  4  1  0  0  0  0
  4  5  1  0  0  0  0
  5  6  1  0  0  0  0
  6  7  1  0  0  0  0
  7  8  1  0  0  0  0
  8  9  1  0  0  0  0
  9 10  1  0  0  0  0
 10 11  1  0  0  0  0
 10 12  1  0  0  0  0
  8 13  1  0  0  0  0
 13 14  1  0  0  0  0
 14 15  1  0  0  0  0
 14 16  1  0  0  0  0
  5 17  1  0  0  0  0
 17 18  1  0  0  0  0
 18 19  1  0  0  0  0
 18 20  1  0  0  0  0
M  END
> <activity>
3.3

> <InChiKey>
NSOXQYCFHDMMGV-UHFFFAOYSA-N

$$$$

  Mrv2220 08292413132D          

 14 16  0  0  0  0            999 V2000
    4.0145    0.4125    0.0000 C   0  0  0  0  0  0  0  0  0  0  0  0
    3.6020    1.1270    0.0000 C   0  0  0  0  0  0  0  0  0  0  0  0
    2.7770    1.1270    0.0000 N   0  0  0  0  0  0  0  0  0  0  0  0
    2.3645    0.4125    0.0000 C   0  0  0  0  0  0  0  0  0  0  0  0
    2.7770   -0.3020    0.0000 C   0  0  0  0  0  0  0  0  0  0  0  0
    3.6020   -0.3020    0.0000 C   0  0  0  0  0  0  0  0  0  0  0  0
    2.3645   -1.0164    0.0000 C   0  0  0  0  0  0  0  0  0  0  0  0
    1.5395   -1.0164    0.0000 C   0  0  0  0  0  0  0  0  0  0  0  0
    1.1270   -0.3020    0.0000 C   0  0  0  0  0  0  0  0  0  0  0  0
    0.3020   -0.3020    0.0000 C   0  0  0  0  0  0  0  0  0  0  0  0
   -0.1105    0.4125    0.0000 C   0  0  0  0  0  0  0  0  0  0  0  0
    0.3020    1.1270    0.0000 C   0  0  0  0  0  0  0  0  0  0  0  0
    1.1270    1.1270    0.0000 N   0  0  0  0  0  0  0  0  0  0  0  0
    1.5395    0.4125    0.0000 C   0  0  0  0  0  0  0  0  0  0  0  0
  1  2  4  0  0  0  0
  2  3  4  0  0  0  0
  3  4  4  0  0  0  0
  4  5  4  0  0  0  0
  5  6  4  0  0  0  0
  1  6  4  0  0  0  0
  5  7  4  0  0  0  0
  7  8  4  0  0  0  0
  8  9  4  0  0  0  0
  9 10  4  0  0  0  0
 10 11  4  0  0  0  0
 11 12  4  0  0  0  0
 12 13  4  0  0  0  0
 13 14  4  0  0  0  0
  9 14  4  0  0  0  0
  4 14  4  0  0  0  0
M  END
> <activity>
46.1

> <InChiKey>
DGEZNRSVGBDHLK-UHFFFAOYSA-N

$$$$

  Mrv2220 08292413132D          

 10 10  0  0  0  0            999 V2000
    0.0000    2.4750    0.0000 O   0  0  0  0  0  0  0  0  0  0  0  0
    0.7145    2.0625    0.0000 C   0  0  0  0  0  0  0  0  0  0  0  0
    0.7145    1.2375    0.0000 C   0  0  0  0  0  0  0  0  0  0  0  0
    1.4289    0.8250    0.0000 C   0  0  0  0  0  0  0  0  0  0  0  0
    1.4289   -0.0000    0.0000 C   0  0  0  0  0  0  0  0  0  0  0  0
    0.7145   -0.4125    0.0000 C   0  0  0  0  0  0  0  0  0  0  0  0
    0.0000    0.0000    0.0000 C   0  0  0  0  0  0  0  0  0  0  0  0
    0.0000    0.8250    0.0000 C   0  0  0  0  0  0  0  0  0  0  0  0
   -0.7145    1.2375    0.0000 C   0  0  0  0  0  0  0  0  0  0  0  0
   -0.7145    2.0625    0.0000 O   0  0  0  0  0  0  0  0  0  0  0  0
  1  2  2  0  0  0  0
  2  3  1  0  0  0  0
  3  4  4  0  0  0  0
  4  5  4  0  0  0  0
  5  6  4  0  0  0  0
  6  7  4  0  0  0  0
  7  8  4  0  0  0  0
  3  8  4  0  0  0  0
  8  9  1  0  0  0  0
  9 10  2  0  0  0  0
M  END
> <activity>
98.0

> <InChiKey>
ZWLUXSQADUDCSB-UHFFFAOYSA-N

$$$$

  Mrv2220 08292413132D          

 32 32  0  0  0  0            999 V2000
   -5.0013   -3.7125    0.0000 C   0  0  0  0  0  0  0  0  0  0  0  0
   -4.2868   -3.3000    0.0000 C   0  0  0  0  0  0  0  0  0  0  0  0
   -4.2868   -2.4750    0.0000 C   0  0  0  0  0  0  0  0  0  0  0  0
   -3.5724   -3.7125    0.0000 C   0  0  0  0  0  0  0  0  0  0  0  0
   -2.8579   -3.3000    0.0000 C   0  0  0  0  0  0  0  0  0  0  0  0
   -2.1434   -3.7125    0.0000 C   0  0  0  0  0  0  0  0  0  0  0  0
   -1.4289   -3.3000    0.0000 C   0  0  0  0  0  0  0  0  0  0  0  0
   -0.7145   -3.7125    0.0000 C   0  0  0  0  0  0  0  0  0  0  0  0
    0.0000   -3.3000    0.0000 C   0  0  0  0  0  0  0  0  0  0  0  0
    0.7145   -3.7125    0.0000 C   0  0  0  0  0  0  0  0  0  0  0  0
    1.4289   -3.3000    0.0000 O   0  0  0  0  0  0  0  0  0  0  0  0
    1.4289   -2.4750    0.0000 C   0  0  0  0  0  0  0  0  0  0  0  0
    2.1434   -2.0625    0.0000 O   0  0  0  0  0  0  0  0  0  0  0  0
    0.7145   -2.0625    0.0000 C   0  0  0  0  0  0  0  0  0  0  0  0
    0.0000   -2.4750    0.0000 C   0  0  0  0  0  0  0  0  0  0  0  0
   -0.7145   -2.0625    0.0000 C   0  0  0  0  0  0  0  0  0  0  0  0
   -0.7145   -1.2375    0.0000 C   0  0  0  0  0  0  0  0  0  0  0  0
    0.0000   -0.8250    0.0000 C   0  0  0  0  0  0  0  0  0  0  0  0
    0.7145   -1.2375    0.0000 C   0  0  0  0  0  0  0  0  0  0  0  0
    1.4289   -0.8250    0.0000 C   0  0  0  0  0  0  0  0  0  0  0  0
    1.4289    0.0000    0.0000 O   0  0  0  0  0  0  0  0  0  0  0  0
    2.1434   -1.2375    0.0000 O   0  0  0  0  0  0  0  0  0  0  0  0
    2.8579   -0.8250    0.0000 C   0  0  0  0  0  0  0  0  0  0  0  0
    3.5724   -1.2375    0.0000 C   0  0  0  0  0  0  0  0  0  0  0  0
    4.2868   -0.8250    0.0000 C   0  0  0  0  0  0  0  0  0  0  0  0
    5.0013   -1.2375    0.0000 C   0  0  0  0  0  0  0  0  0  0  0  0
    5.7158   -0.8250    0.0000 C   0  0  0  0  0  0  0  0  0  0  0  0
    6.4302   -1.2375    0.0000 C   0  0  0  0  0  0  0  0  0  0  0  0
    7.1447   -0.8250    0.0000 C   0  0  0  0  0  0  0  0  0  0  0  0
    7.8592   -1.2375    0.0000 C   0  0  0  0  0  0  0  0  0  0  0  0
    8.5737   -0.8250    0.0000 C   0  0  0  0  0  0  0  0  0  0  0  0
    7.8592   -2.0625    0.0000 C   0  0  0  0  0  0  0  0  0  0  0  0
  1  2  1  0  0  0  0
  2  3  1  0  0  0  0
  2  4  1  0  0  0  0
  4  5  1  0  0  0  0
  5  6  1  0  0  0  0
  6  7  1  0  0  0  0
  7  8  1  0  0  0  0
  8  9  1  0  0  0  0
  9 10  1  0  0  0  0
 10 11  1  0  0  0  0
 11 12  1  0  0  0  0
 12 13  2  0  0  0  0
 12 14  1  0  0  0  0
 14 15  4  0  0  0  0
 15 16  4  0  0  0  0
 16 17  4  0  0  0  0
 17 18  4  0  0  0  0
 18 19  4  0  0  0  0
 14 19  4  0  0  0  0
 19 20  1  0  0  0  0
 20 21  2  0  0  0  0
 20 22  1  0  0  0  0
 22 23  1  0  0  0  0
 23 24  1  0  0  0  0
 24 25  1  0  0  0  0
 25 26  1  0  0  0  0
 26 27  1  0  0  0  0
 27 28  1  0  0  0  0
 28 29  1  0  0  0  0
 29 30  1  0  0  0  0
 30 31  1  0  0  0  0
 30 32  1  0  0  0  0
M  END
> <activity>
-5.7

> <InChiKey>
ZVFDTKUVRCTHQE-UHFFFAOYSA-N

$$$$

  Mrv2220 08292413132D          

 34 34  0  0  0  0            999 V2000
   -7.8592    1.2375    0.0000 C   0  0  0  0  0  0  0  0  0  0  0  0
   -7.1447    1.6500    0.0000 C   0  0  0  0  0  0  0  0  0  0  0  0
   -6.4302    1.2375    0.0000 C   0  0  0  0  0  0  0  0  0  0  0  0
   -5.7158    1.6500    0.0000 C   0  0  0  0  0  0  0  0  0  0  0  0
   -5.0013    1.2375    0.0000 C   0  0  0  0  0  0  0  0  0  0  0  0
   -4.2868    1.6500    0.0000 C   0  0  0  0  0  0  0  0  0  0  0  0
   -3.5724    1.2375    0.0000 C   0  0  0  0  0  0  0  0  0  0  0  0
   -2.8579    1.6500    0.0000 C   0  0  0  0  0  0  0  0  0  0  0  0
   -2.1434    1.2375    0.0000 C   0  0  0  0  0  0  0  0  0  0  0  0
   -1.4289    1.6500    0.0000 C   0  0  0  0  0  0  0  0  0  0  0  0
   -0.7145    1.2375    0.0000 C   0  0  0  0  0  0  0  0  0  0  0  0
    0.0000    1.6500    0.0000 O   0  0  0  0  0  0  0  0  0  0  0  0
    0.7145    1.2375    0.0000 C   0  0  0  0  0  0  0  0  0  0  0  0
    0.7145    0.4125    0.0000 O   0  0  0  0  0  0  0  0  0  0  0  0
    1.4289    1.6500    0.0000 C   0  0  0  0  0  0  0  0  0  0  0  0
    1.4289    2.4750    0.0000 C   0  0  0  0  0  0  0  0  0  0  0  0
    2.1434    2.8875    0.0000 C   0  0  0  0  0  0  0  0  0  0  0  0
    2.8579    2.4750    0.0000 C   0  0  0  0  0  0  0  0  0  0  0  0
    2.8579    1.6500    0.0000 C   0  0  0  0  0  0  0  0  0  0  0  0
    2.1434    1.2375    0.0000 C   0  0  0  0  0  0  0  0  0  0  0  0
    2.1434    0.4125    0.0000 C   0  0  0  0  0  0  0  0  0  0  0  0
    1.4289    0.0000    0.0000 O   0  0  0  0  0  0  0  0  0  0  0  0
    2.8579    0.0000    0.0000 O   0  0  0  0  0  0  0  0  0  0  0  0
    3.5724    0.4125    0.0000 C   0  0  0  0  0  0  0  0  0  0  0  0
    4.2868    0.0000    0.0000 C   0  0  0  0  0  0  0  0  0  0  0  0
    5.0013    0.4125    0.0000 C   0  0  0  0  0  0  0  0  0  0  0  0
    5.7158    0.0000    0.0000 C   0  0  0  0  0  0  0  0  0  0  0  0
    6.4302    0.4125    0.0000 C   0  0  0  0  0  0  0  0  0  0  0  0
    7.1447    0.0000    0.0000 C   0  0  0  0  0  0  0  0  0  0  0  0
    7.8592    0.4125    0.0000 C   0  0  0  0  0  0  0  0  0  0  0  0
    8.5737    0.0000    0.0000 C   0  0  0  0  0  0  0  0  0  0  0  0
    9.2881    0.4125    0.0000 C   0  0  0  0  0  0  0  0  0  0  0  0
   10.0026    0.0000    0.0000 C   0  0  0  0  0  0  0  0  0  0  0  0
   10.7171    0.4125    0.0000 C   0  0  0  0  0  0  0  0  0  0  0  0
  1  2  1  0  0  0  0
  2  3  1  0  0  0  0
  3  4  1  0  0  0  0
  4  5  1  0  0  0  0
  5  6  1  0  0  0  0
  6  7  1  0  0  0  0
  7  8  1  0  0  0  0
  8  9  1  0  0  0  0
  9 10  1  0  0  0  0
 10 11  1  0  0  0  0
 11 12  1  0  0  0  0
 12 13  1  0  0  0  0
 13 14  2  0  0  0  0
 13 15  1  0  0  0  0
 15 16  4  0  0  0  0
 16 17  4  0  0  0  0
 17 18  4  0  0  0  0
 18 19  4  0  0  0  0
 19 20  4  0  0  0  0
 15 20  4  0  0  0  0
 20 21  1  0  0  0  0
 21 22  2  0  0  0  0
 21 23  1  0  0  0  0
 23 24  1  0  0  0  0
 24 25  1  0  0  0  0
 25 26  1  0  0  0  0
 26 27  1  0  0  0  0
 27 28  1  0  0  0  0
 28 29  1  0  0  0  0
 29 30  1  0  0  0  0
 30 31  1  0  0  0  0
 31 32  1  0  0  0  0
 32 33  1  0  0  0  0
 33 34  1  0  0  0  0
M  END
> <activity>
6.1

> <InChiKey>
QQVHEQUEHCEAKS-UHFFFAOYSA-N

$$$$

  Mrv2220 08292413132D          

  8  8  0  0  0  0            999 V2000
    0.7145    2.0625    0.0000 O   0  0  0  0  0  0  0  0  0  0  0  0
    0.7145    1.2375    0.0000 C   0  0  0  0  0  0  0  0  0  0  0  0
    1.4289    0.8250    0.0000 C   0  0  0  0  0  0  0  0  0  0  0  0
    1.4289   -0.0000    0.0000 C   0  0  0  0  0  0  0  0  0  0  0  0
    0.7145   -0.4125    0.0000 C   0  0  0  0  0  0  0  0  0  0  0  0
    0.0000    0.0000    0.0000 C   0  0  0  0  0  0  0  0  0  0  0  0
    0.0000    0.8250    0.0000 C   0  0  0  0  0  0  0  0  0  0  0  0
   -0.7145    1.2375    0.0000 O   0  0  0  0  0  0  0  0  0  0  0  0
  1  2  1  0  0  0  0
  2  3  4  0  0  0  0
  3  4  4  0  0  0  0
  4  5  4  0  0  0  0
  5  6  4  0  0  0  0
  6  7  4  0  0  0  0
  2  7  4  0  0  0  0
  7  8  1  0  0  0  0
M  END
> <activity>
34.4

> <InChiKey>
YCIMNLLNPGFGHC-UHFFFAOYSA-N

$$$$

  Mrv2220 08292413132D          

  4  3  0  0  0  0            999 V2000
    2.0625   -0.7145    0.0000 Br  0  0  0  0  0  0  0  0  0  0  0  0
    1.2375   -0.7145    0.0000 C   0  0  0  0  0  0  0  0  0  0  0  0
    0.8250    0.0000    0.0000 C   0  0  0  0  0  0  0  0  0  0  0  0
    0.0000    0.0000    0.0000 Br  0  0  0  0  0  0  0  0  0  0  0  0
  1  2  1  0  0  0  0
  2  3  1  0  0  0  0
  3  4  1  0  0  0  0
M  END
> <activity>
13.4

> <InChiKey>
PAAZPARNPHGIKF-UHFFFAOYSA-N

$$$$

  Mrv2220 08292413132D          

 12 12  0  0  0  0            999 V2000
    0.7145    2.8875    0.0000 F   0  0  0  0  0  0  0  0  0  0  0  0
    0.7145    2.0625    0.0000 C   0  0  0  0  0  0  0  0  0  0  0  0
   -0.1105    2.0625    0.0000 F   0  0  0  0  0  0  0  0  0  0  0  0
    1.5395    2.0625    0.0000 F   0  0  0  0  0  0  0  0  0  0  0  0
    0.7145    1.2375    0.0000 C   0  0  0  0  0  0  0  0  0  0  0  0
    1.4289    0.8250    0.0000 C   0  0  0  0  0  0  0  0  0  0  0  0
    1.4289   -0.0000    0.0000 C   0  0  0  0  0  0  0  0  0  0  0  0
    0.7145   -0.4125    0.0000 C   0  0  0  0  0  0  0  0  0  0  0  0
    0.7145   -1.2375    0.0000 Cl  0  0  0  0  0  0  0  0  0  0  0  0
    0.0000    0.0000    0.0000 C   0  0  0  0  0  0  0  0  0  0  0  0
   -0.7145   -0.4125    0.0000 Cl  0  0  0  0  0  0  0  0  0  0  0  0
    0.0000    0.8250    0.0000 C   0  0  0  0  0  0  0  0  0  0  0  0
  1  2  1  0  0  0  0
  2  3  1  0  0  0  0
  2  4  1  0  0  0  0
  2  5  1  0  0  0  0
  5  6  4  0  0  0  0
  6  7  4  0  0  0  0
  7  8  4  0  0  0  0
  8  9  1  0  0  0  0
  8 10  4  0  0  0  0
 10 11  1  0  0  0  0
 10 12  4  0  0  0  0
  5 12  4  0  0  0  0
M  END
> <activity>
8.3

> <InChiKey>
XILPLWOGHPSJBK-UHFFFAOYSA-N

$$$$

  Mrv2220 08292413132D          

  8  8  0  0  0  0            999 V2000
    0.7145    2.0625    0.0000 Cl  0  0  0  0  0  0  0  0  0  0  0  0
    0.7145    1.2375    0.0000 C   0  0  0  0  0  0  0  0  0  0  0  0
    1.4289    0.8250    0.0000 C   0  0  0  0  0  0  0  0  0  0  0  0
    1.4289   -0.0000    0.0000 C   0  0  0  0  0  0  0  0  0  0  0  0
    0.7145   -0.4125    0.0000 C   0  0  0  0  0  0  0  0  0  0  0  0
    0.0000    0.0000    0.0000 C   0  0  0  0  0  0  0  0  0  0  0  0
    0.0000    0.8250    0.0000 C   0  0  0  0  0  0  0  0  0  0  0  0
   -0.7145    1.2375    0.0000 Cl  0  0  0  0  0  0  0  0  0  0  0  0
  1  2  1  0  0  0  0
  2  3  4  0  0  0  0
  3  4  4  0  0  0  0
  4  5  4  0  0  0  0
  5  6  4  0  0  0  0
  6  7  4  0  0  0  0
  2  7  4  0  0  0  0
  7  8  1  0  0  0  0
M  END
> <activity>
20.8

> <InChiKey>
RFFLAFLAYFXFSW-UHFFFAOYSA-N

$$$$

  Mrv2220 08292413132D          

 11 11  0  0  0  0            999 V2000
    0.7145    2.0625    0.0000 C   0  0  0  0  0  0  0  0  0  0  0  0
    0.7145    1.2375    0.0000 C   0  0  0  0  0  0  0  0  0  0  0  0
    1.4289    0.8250    0.0000 C   0  0  0  0  0  0  0  0  0  0  0  0
    1.4289   -0.0000    0.0000 C   0  0  0  0  0  0  0  0  0  0  0  0
    0.7145   -0.4125    0.0000 C   0  0  0  0  0  0  0  0  0  0  0  0
    0.0000    0.0000    0.0000 C   0  0  0  0  0  0  0  0  0  0  0  0
   -0.7145   -0.4125    0.0000 N   0  3  0  0  0  0  0  0  0  0  0  0
   -0.7145   -1.2375    0.0000 O   0  0  0  0  0  0  0  0  0  0  0  0
   -1.4289    0.0000    0.0000 O   0  5  0  0  0  0  0  0  0  0  0  0
    0.0000    0.8250    0.0000 C   0  0  0  0  0  0  0  0  0  0  0  0
   -0.7145    1.2375    0.0000 C   0  0  0  0  0  0  0  0  0  0  0  0
  1  2  1  0  0  0  0
  2  3  4  0  0  0  0
  3  4  4  0  0  0  0
  4  5  4  0  0  0  0
  5  6  4  0  0  0  0
  6  7  1  0  0  0  0
  7  8  2  0  0  0  0
  7  9  1  0  0  0  0
  6 10  4  0  0  0  0
  2 10  4  0  0  0  0
 10 11  1  0  0  0  0
M  CHG  2   7   1   9  -1
M  END
> <activity>
56.0

> <InChiKey>
FVHAWXWFPBPFOS-UHFFFAOYSA-N

$$$$

  Mrv2220 08292413132D          

 12 12  0  0  0  0            999 V2000
    0.0000    2.4750    0.0000 O   0  0  0  0  0  0  0  0  0  0  0  0
    0.7145    2.0625    0.0000 N   0  3  0  0  0  0  0  0  0  0  0  0
    1.4289    2.4750    0.0000 O   0  5  0  0  0  0  0  0  0  0  0  0
    0.7145    1.2375    0.0000 C   0  0  0  0  0  0  0  0  0  0  0  0
    1.4289    0.8250    0.0000 C   0  0  0  0  0  0  0  0  0  0  0  0
    1.4289   -0.0000    0.0000 C   0  0  0  0  0  0  0  0  0  0  0  0
    0.7145   -0.4125    0.0000 C   0  0  0  0  0  0  0  0  0  0  0  0
    0.0000    0.0000    0.0000 C   0  0  0  0  0  0  0  0  0  0  0  0
    0.0000    0.8250    0.0000 C   0  0  0  0  0  0  0  0  0  0  0  0
   -0.7145    1.2375    0.0000 N   0  3  0  0  0  0  0  0  0  0  0  0
   -0.7145    2.0625    0.0000 O   0  0  0  0  0  0  0  0  0  0  0  0
   -1.4289    0.8250    0.0000 O   0  5  0  0  0  0  0  0  0  0  0  0
  1  2  2  0  0  0  0
  2  3  1  0  0  0  0
  2  4  1  0  0  0  0
  4  5  4  0  0  0  0
  5  6  4  0  0  0  0
  6  7  4  0  0  0  0
  7  8  4  0  0  0  0
  8  9  4  0  0  0  0
  4  9  4  0  0  0  0
  9 10  1  0  0  0  0
 10 11  2  0  0  0  0
 10 12  1  0  0  0  0
M  CHG  4   2   1   3  -1  10   1  12  -1
M  END
> <activity>
60.9

> <InChiKey>
IZUKQUVSCNEFMJ-UHFFFAOYSA-N

$$$$

  Mrv2220 08292413132D          

 16 17  0  0  0  0            999 V2000
   -1.4289   -1.6500    0.0000 C   0  0  0  0  0  0  0  0  0  0  0  0
   -0.7145   -1.2375    0.0000 C   0  0  0  0  0  0  0  0  0  0  0  0
    0.0000   -1.6500    0.0000 C   0  0  0  0  0  0  0  0  0  0  0  0
    0.0000   -2.4750    0.0000 C   0  0  0  0  0  0  0  0  0  0  0  0
    0.7145   -2.8875    0.0000 O   0  0  0  0  0  0  0  0  0  0  0  0
    1.4289   -2.4750    0.0000 C   0  0  0  0  0  0  0  0  0  0  0  0
    2.1434   -2.8875    0.0000 C   0  0  0  0  0  0  0  0  0  0  0  0
    2.8579   -2.4750    0.0000 O   0  0  0  0  0  0  0  0  0  0  0  0
    3.5724   -2.8875    0.0000 C   0  0  0  0  0  0  0  0  0  0  0  0
    4.2868   -2.4750    0.0000 C   0  0  0  0  0  0  0  0  0  0  0  0
    5.0013   -2.8875    0.0000 C   0  0  0  0  0  0  0  0  0  0  0  0
    5.0013   -3.7125    0.0000 C   0  0  0  0  0  0  0  0  0  0  0  0
    4.2868   -4.1250    0.0000 C   0  0  0  0  0  0  0  0  0  0  0  0
    3.5724   -3.7125    0.0000 C   0  0  0  0  0  0  0  0  0  0  0  0
   -0.7145   -2.8875    0.0000 C   0  0  0  0  0  0  0  0  0  0  0  0
   -1.4289   -2.4750    0.0000 C   0  0  0  0  0  0  0  0  0  0  0  0
  1  2  4  0  0  0  0
  2  3  4  0  0  0  0
  3  4  4  0  0  0  0
  4  5  1  0  0  0  0
  5  6  1  0  0  0  0
  6  7  1  0  0  0  0
  7  8  1  0  0  0  0
  8  9  1  0  0  0  0
  9 10  4  0  0  0  0
 10 11  4  0  0  0  0
 11 12  4  0  0  0  0
 12 13  4  0  0  0  0
 13 14  4  0  0  0  0
  9 14  4  0  0  0  0
  4 15  4  0  0  0  0
 15 16  4  0  0  0  0
  1 16  4  0  0  0  0
M  END
> <activity>
23.4

> <InChiKey>
XCSGHNKDXGYELG-UHFFFAOYSA-N

$$$$

  Mrv2220 08292413132D          

 15 16  0  0  0  0            999 V2000
    0.0000   -1.6500    0.0000 O   0  0  0  0  0  0  0  0  0  0  0  0
    0.7145   -1.2375    0.0000 C   0  0  0  0  0  0  0  0  0  0  0  0
    1.4289   -1.6500    0.0000 C   0  0  0  0  0  0  0  0  0  0  0  0
    1.4289   -2.4750    0.0000 C   0  0  0  0  0  0  0  0  0  0  0  0
    2.1434   -2.8875    0.0000 C   0  0  0  0  0  0  0  0  0  0  0  0
    2.1434   -3.7125    0.0000 C   0  0  0  0  0  0  0  0  0  0  0  0
    1.4289   -4.1250    0.0000 C   0  0  0  0  0  0  0  0  0  0  0  0
    0.7145   -3.7125    0.0000 C   0  0  0  0  0  0  0  0  0  0  0  0
    0.7145   -2.8875    0.0000 C   0  0  0  0  0  0  0  0  0  0  0  0
    0.7145   -0.4125    0.0000 C   0  0  0  0  0  0  0  0  0  0  0  0
    0.0000    0.0000    0.0000 C   0  0  0  0  0  0  0  0  0  0  0  0
    0.0000    0.8250    0.0000 C   0  0  0  0  0  0  0  0  0  0  0  0
    0.7145    1.2375    0.0000 C   0  0  0  0  0  0  0  0  0  0  0  0
    1.4289    0.8250    0.0000 C   0  0  0  0  0  0  0  0  0  0  0  0
    1.4289    0.0000    0.0000 C   0  0  0  0  0  0  0  0  0  0  0  0
  1  2  2  0  0  0  0
  2  3  1  0  0  0  0
  3  4  1  0  0  0  0
  4  5  4  0  0  0  0
  5  6  4  0  0  0  0
  6  7  4  0  0  0  0
  7  8  4  0  0  0  0
  8  9  4  0  0  0  0
  4  9  4  0  0  0  0
  2 10  1  0  0  0  0
 10 11  4  0  0  0  0
 11 12  4  0  0  0  0
 12 13  4  0  0  0  0
 13 14  4  0  0  0  0
 14 15  4  0  0  0  0
 10 15  4  0  0  0  0
M  END
> <activity>
63.1

> <InChiKey>
OTKCEEWUXHVZQI-UHFFFAOYSA-N

$$$$

  Mrv2220 08292413132D          

  4  3  0  0  0  0            999 V2000
    2.0625   -0.7145    0.0000 N   0  0  0  0  0  0  0  0  0  0  0  0
    1.2375   -0.7145    0.0000 C   0  0  0  0  0  0  0  0  0  0  0  0
    0.8250    0.0000    0.0000 C   0  0  0  0  0  0  0  0  0  0  0  0
    0.0000    0.0000    0.0000 N   0  0  0  0  0  0  0  0  0  0  0  0
  1  2  1  0  0  0  0
  2  3  1  0  0  0  0
  3  4  1  0  0  0  0
M  END
> <activity>
13.4

> <InChiKey>
PIICEJLVQHRZGT-UHFFFAOYSA-N

$$$$

  Mrv2220 08292413132D          

  9  8  0  0  0  0            999 V2000
    1.0461    1.4289    0.0000 C   0  0  0  0  0  0  0  0  0  0  0  0
    1.7605    1.8414    0.0000 C   0  0  0  0  0  0  0  0  0  0  0  0
    2.4750    1.4289    0.0000 C   0  0  0  0  0  0  0  0  0  0  0  0
    3.1895    1.8414    0.0000 C   0  0  0  0  0  0  0  0  0  0  0  0
    3.9039    1.4289    0.0000 O   0  0  0  0  0  0  0  0  0  0  0  0
    4.6184    1.8414    0.0000 C   0  0  0  0  0  0  0  0  0  0  0  0
    4.6184    2.6664    0.0000 O   0  0  0  0  0  0  0  0  0  0  0  0
    5.3329    1.4289    0.0000 C   0  0  0  0  0  0  0  0  0  0  0  0
    6.0474    1.8414    0.0000 C   0  0  0  0  0  0  0  0  0  0  0  0
  1  2  1  0  0  0  0
  2  3  1  0  0  0  0
  3  4  1  0  0  0  0
  4  5  1  0  0  0  0
  5  6  1  0  0  0  0
  6  7  1  0  0  0  0
  6  8  1  0  0  0  0
  8  9  1  0  0  0  0
M  END
> <activity>
10.2

> <InChiKey>
IDQBJILTOGBZCR-UHFFFAOYSA-N

$$$$

  Mrv2220 08292413132D          

  5  4  0  0  0  0            999 V2000
    2.0625   -0.7145    0.0000 C   0  0  0  0  0  0  0  0  0  0  0  0
    1.2375   -0.7145    0.0000 C   0  0  0  0  0  0  0  0  0  0  0  0
    0.8250   -1.4289    0.0000 O   0  0  0  0  0  0  0  0  0  0  0  0
    0.8250    0.0000    0.0000 C   0  0  0  0  0  0  0  0  0  0  0  0
    0.0000    0.0000    0.0000 O   0  0  0  0  0  0  0  0  0  0  0  0
  1  2  1  0  0  0  0
  2  3  1  0  0  0  0
  2  4  1  0  0  0  0
  4  5  1  0  0  0  0
M  END
> <activity>
-6.8

> <InChiKey>
DNIAPMSPPWPWGF-UHFFFAOYSA-N

$$$$

  Mrv2220 08292413132D          

 11 12  0  0  0  0            999 V2000
    0.8838   -2.1500    0.0000 O   0  0  0  0  0  0  0  0  0  0  0  0
    1.1387   -1.3654    0.0000 C   0  0  0  0  0  0  0  0  0  0  0  0
    0.6538   -0.6979    0.0000 N   0  0  0  0  0  0  0  0  0  0  0  0
    1.1387   -0.0305    0.0000 C   0  0  0  0  0  0  0  0  0  0  0  0
    0.8838    0.7541    0.0000 O   0  0  0  0  0  0  0  0  0  0  0  0
    1.9233   -0.2854    0.0000 C   0  0  0  0  0  0  0  0  0  0  0  0
    2.6378    0.1271    0.0000 C   0  0  0  0  0  0  0  0  0  0  0  0
    3.3523   -0.2854    0.0000 C   0  0  0  0  0  0  0  0  0  0  0  0
    3.3523   -1.1104    0.0000 C   0  0  0  0  0  0  0  0  0  0  0  0
    2.6378   -1.5229    0.0000 C   0  0  0  0  0  0  0  0  0  0  0  0
    1.9233   -1.1104    0.0000 C   0  0  0  0  0  0  0  0  0  0  0  0
  1  2  2  0  0  0  0
  2  3  1  0  0  0  0
  3  4  1  0  0  0  0
  4  5  2  0  0  0  0
  4  6  1  0  0  0  0
  6  7  1  0  0  0  0
  7  8  1  0  0  0  0
  8  9  2  0  0  0  0
  9 10  1  0  0  0  0
 10 11  1  0  0  0  0
  2 11  1  0  0  0  0
  6 11  1  0  0  0  0
M  END
> <activity>
5.3

> <InChiKey>
CIFFBTOJCKSRJY-UHFFFAOYSA-N

$$$$

  Mrv2220 08292413132D          

  9  9  0  0  0  0            999 V2000
    0.7145    2.0625    0.0000 Cl  0  0  0  0  0  0  0  0  0  0  0  0
    0.7145    1.2375    0.0000 C   0  0  0  0  0  0  0  0  0  0  0  0
    1.4289    0.8250    0.0000 C   0  0  0  0  0  0  0  0  0  0  0  0
    1.4289   -0.0000    0.0000 C   0  0  0  0  0  0  0  0  0  0  0  0
    0.7145   -0.4125    0.0000 C   0  0  0  0  0  0  0  0  0  0  0  0
    0.7145   -1.2375    0.0000 Cl  0  0  0  0  0  0  0  0  0  0  0  0
    0.0000    0.0000    0.0000 C   0  0  0  0  0  0  0  0  0  0  0  0
   -0.7145   -0.4125    0.0000 Cl  0  0  0  0  0  0  0  0  0  0  0  0
    0.0000    0.8250    0.0000 C   0  0  0  0  0  0  0  0  0  0  0  0
  1  2  1  0  0  0  0
  2  3  4  0  0  0  0
  3  4  4  0  0  0  0
  4  5  4  0  0  0  0
  5  6  1  0  0  0  0
  5  7  4  0  0  0  0
  7  8  1  0  0  0  0
  7  9  4  0  0  0  0
  2  9  4  0  0  0  0
M  END
> <activity>
7.5

> <InChiKey>
PBKONEOXTCPAFI-UHFFFAOYSA-N

$$$$

  Mrv2220 08292413132D          

  9  9  0  0  0  0            999 V2000
    0.7145    2.0625    0.0000 C   0  0  0  0  0  0  0  0  0  0  0  0
    0.7145    1.2375    0.0000 C   0  0  0  0  0  0  0  0  0  0  0  0
    1.4289    0.8250    0.0000 C   0  0  0  0  0  0  0  0  0  0  0  0
    1.4289   -0.0000    0.0000 C   0  0  0  0  0  0  0  0  0  0  0  0
    0.7145   -0.4125    0.0000 C   0  0  0  0  0  0  0  0  0  0  0  0
    0.7145   -1.2375    0.0000 C   0  0  0  0  0  0  0  0  0  0  0  0
    0.0000    0.0000    0.0000 C   0  0  0  0  0  0  0  0  0  0  0  0
   -0.7145   -0.4125    0.0000 C   0  0  0  0  0  0  0  0  0  0  0  0
    0.0000    0.8250    0.0000 C   0  0  0  0  0  0  0  0  0  0  0  0
  1  2  1  0  0  0  0
  2  3  4  0  0  0  0
  3  4  4  0  0  0  0
  4  5  4  0  0  0  0
  5  6  1  0  0  0  0
  5  7  4  0  0  0  0
  7  8  1  0  0  0  0
  7  9  4  0  0  0  0
  2  9  4  0  0  0  0
M  END
> <activity>
17.8

> <InChiKey>
GWHJZXXIDMPWGX-UHFFFAOYSA-N

$$$$

  Mrv2220 08292413132D          

 10 10  0  0  0  0            999 V2000
    0.7145    2.0625    0.0000 Cl  0  0  0  0  0  0  0  0  0  0  0  0
    0.7145    1.2375    0.0000 C   0  0  0  0  0  0  0  0  0  0  0  0
    1.4289    0.8250    0.0000 C   0  0  0  0  0  0  0  0  0  0  0  0
    1.4289   -0.0000    0.0000 C   0  0  0  0  0  0  0  0  0  0  0  0
    2.1434   -0.4125    0.0000 Cl  0  0  0  0  0  0  0  0  0  0  0  0
    0.7145   -0.4125    0.0000 C   0  0  0  0  0  0  0  0  0  0  0  0
    0.7145   -1.2375    0.0000 Cl  0  0  0  0  0  0  0  0  0  0  0  0
    0.0000    0.0000    0.0000 C   0  0  0  0  0  0  0  0  0  0  0  0
    0.0000    0.8250    0.0000 C   0  0  0  0  0  0  0  0  0  0  0  0
   -0.7145    1.2375    0.0000 Cl  0  0  0  0  0  0  0  0  0  0  0  0
  1  2  1  0  0  0  0
  2  3  4  0  0  0  0
  3  4  4  0  0  0  0
  4  5  1  0  0  0  0
  4  6  4  0  0  0  0
  6  7  1  0  0  0  0
  6  8  4  0  0  0  0
  8  9  4  0  0  0  0
  2  9  4  0  0  0  0
  9 10  1  0  0  0  0
M  END
> <activity>
1.5

> <InChiKey>
JHBKHLUZVFWLAG-UHFFFAOYSA-N

$$$$

  Mrv2220 08292413132D          

 10 10  0  0  0  0            999 V2000
    0.7145    2.0625    0.0000 C   0  0  0  0  0  0  0  0  0  0  0  0
    0.7145    1.2375    0.0000 C   0  0  0  0  0  0  0  0  0  0  0  0
    1.4289    0.8250    0.0000 C   0  0  0  0  0  0  0  0  0  0  0  0
    1.4289   -0.0000    0.0000 C   0  0  0  0  0  0  0  0  0  0  0  0
    2.1434   -0.4125    0.0000 C   0  0  0  0  0  0  0  0  0  0  0  0
    0.7145   -0.4125    0.0000 C   0  0  0  0  0  0  0  0  0  0  0  0
    0.7145   -1.2375    0.0000 C   0  0  0  0  0  0  0  0  0  0  0  0
    0.0000    0.0000    0.0000 C   0  0  0  0  0  0  0  0  0  0  0  0
    0.0000    0.8250    0.0000 C   0  0  0  0  0  0  0  0  0  0  0  0
   -0.7145    1.2375    0.0000 C   0  0  0  0  0  0  0  0  0  0  0  0
  1  2  1  0  0  0  0
  2  3  4  0  0  0  0
  3  4  4  0  0  0  0
  4  5  1  0  0  0  0
  4  6  4  0  0  0  0
  6  7  1  0  0  0  0
  6  8  4  0  0  0  0
  8  9  4  0  0  0  0
  2  9  4  0  0  0  0
  9 10  1  0  0  0  0
M  END
> <activity>
14.1

> <InChiKey>
SQNZJJAZBFDUTD-UHFFFAOYSA-N

$$$$

  Mrv2220 08292413132D          

 12 12  0  0  0  0            999 V2000
    1.4289    2.4750    0.0000 O   0  0  0  0  0  0  0  0  0  0  0  0
    0.7145    2.0625    0.0000 C   0  0  0  0  0  0  0  0  0  0  0  0
    0.0000    2.4750    0.0000 Cl  0  0  0  0  0  0  0  0  0  0  0  0
    0.7145    1.2375    0.0000 C   0  0  0  0  0  0  0  0  0  0  0  0
    1.4289    0.8250    0.0000 C   0  0  0  0  0  0  0  0  0  0  0  0
    1.4289   -0.0000    0.0000 C   0  0  0  0  0  0  0  0  0  0  0  0
    0.7145   -0.4125    0.0000 C   0  0  0  0  0  0  0  0  0  0  0  0
    0.0000    0.0000    0.0000 C   0  0  0  0  0  0  0  0  0  0  0  0
   -0.7145   -0.4125    0.0000 C   0  0  0  0  0  0  0  0  0  0  0  0
   -0.7145   -1.2375    0.0000 O   0  0  0  0  0  0  0  0  0  0  0  0
   -1.4289    0.0000    0.0000 Cl  0  0  0  0  0  0  0  0  0  0  0  0
    0.0000    0.8250    0.0000 C   0  0  0  0  0  0  0  0  0  0  0  0
  1  2  2  0  0  0  0
  2  3  1  0  0  0  0
  2  4  1  0  0  0  0
  4  5  4  0  0  0  0
  5  6  4  0  0  0  0
  6  7  4  0  0  0  0
  7  8  4  0  0  0  0
  8  9  1  0  0  0  0
  9 10  2  0  0  0  0
  9 11  1  0  0  0  0
  8 12  4  0  0  0  0
  4 12  4  0  0  0  0
M  END
> <activity>
36.8

> <InChiKey>
FDQSRULYDNDXQB-UHFFFAOYSA-N

$$$$

  Mrv2220 08292413132D          

  6  5  0  0  0  0            999 V2000
    2.4750   -1.4289    0.0000 C   0  0  0  0  0  0  0  0  0  0  0  0
    2.0625   -0.7145    0.0000 C   0  0  0  0  0  0  0  0  0  0  0  0
    2.4750   -0.0000    0.0000 O   0  0  0  0  0  0  0  0  0  0  0  0
    1.2375   -0.7145    0.0000 C   0  0  0  0  0  0  0  0  0  0  0  0
    0.8250    0.0000    0.0000 C   0  0  0  0  0  0  0  0  0  0  0  0
    0.0000    0.0000    0.0000 O   0  0  0  0  0  0  0  0  0  0  0  0
  1  2  1  0  0  0  0
  2  3  1  0  0  0  0
  2  4  1  0  0  0  0
  4  5  1  0  0  0  0
  5  6  1  0  0  0  0
M  END
> <activity>
-5.8

> <InChiKey>
PUPZLCDOIYMWBV-UHFFFAOYSA-N

$$$$

  Mrv2220 08292413132D          

  5  5  0  0  0  0            999 V2000
    0.5678    1.1143    0.0000 C   0  0  0  0  0  0  0  0  0  0  0  0
    1.2352    0.6294    0.0000 C   0  0  0  0  0  0  0  0  0  0  0  0
    0.9803   -0.1553    0.0000 C   0  0  0  0  0  0  0  0  0  0  0  0
    0.1553   -0.1553    0.0000 C   0  0  0  0  0  0  0  0  0  0  0  0
   -0.0997    0.6294    0.0000 C   0  0  0  0  0  0  0  0  0  0  0  0
  1  2  2  0  0  0  0
  2  3  1  0  0  0  0
  3  4  1  0  0  0  0
  4  5  2  0  0  0  0
  1  5  1  0  0  0  0
M  END
> <activity>
10.9

> <InChiKey>
ZSWFCLXCOIISFI-UHFFFAOYSA-N

$$$$

  Mrv2220 08292413132D          

 17 19  0  0  0  0            999 V2000
    5.2855   -0.4125    0.0000 Cl  0  0  0  0  0  0  0  0  0  0  0  0
    4.5710   -0.0000    0.0000 C   0  0  0  0  0  0  0  0  0  0  0  0
    4.5710    0.8250    0.0000 C   0  0  0  0  0  0  0  0  0  0  0  0
    3.8565    1.2375    0.0000 C   0  0  0  0  0  0  0  0  0  0  0  0
    3.8565    2.0625    0.0000 Cl  0  0  0  0  0  0  0  0  0  0  0  0
    3.1421    0.8250    0.0000 C   0  0  0  0  0  0  0  0  0  0  0  0
    3.1421   -0.0000    0.0000 C   0  0  0  0  0  0  0  0  0  0  0  0
    3.8565   -0.4125    0.0000 C   0  0  0  0  0  0  0  0  0  0  0  0
    2.4276   -0.4125    0.0000 N   0  0  0  0  0  0  0  0  0  0  0  0
    1.7131   -0.0000    0.0000 C   0  0  0  0  0  0  0  0  0  0  0  0
    1.0681   -0.5144    0.0000 C   0  0  0  0  0  0  0  0  0  0  0  0
    0.2638   -0.3308    0.0000 C   0  0  0  0  0  0  0  0  0  0  0  0
   -0.0942    0.4125    0.0000 C   0  0  0  0  0  0  0  0  0  0  0  0
    0.2638    1.1558    0.0000 C   0  0  0  0  0  0  0  0  0  0  0  0
    1.0681    1.3394    0.0000 C   0  0  0  0  0  0  0  0  0  0  0  0
    1.7131    0.8250    0.0000 N   0  0  0  0  0  0  0  0  0  0  0  0
    2.4276    1.2375    0.0000 C   0  0  0  0  0  0  0  0  0  0  0  0
  1  2  1  0  0  0  0
  2  3  4  0  0  0  0
  3  4  4  0  0  0  0
  4  5  1  0  0  0  0
  4  6  4  0  0  0  0
  6  7  4  0  0  0  0
  7  8  4  0  0  0  0
  2  8  4  0  0  0  0
  7  9  1  0  0  0  0
  9 10  2  0  0  0  0
 10 11  1  0  0  0  0
 11 12  1  0  0  0  0
 12 13  1  0  0  0  0
 13 14  1  0  0  0  0
 14 15  1  0  0  0  0
 15 16  1  0  0  0  0
 10 16  1  0  0  0  0
 16 17  1  0  0  0  0
  6 17  1  0  0  0  0
M  END
> <activity>
8.2

> <InChiKey>
WTPSHLVHJOJDIF-UHFFFAOYSA-N

$$$$

  Mrv2220 08292413132D          

  8  8  0  0  0  0            999 V2000
    0.7145    2.0625    0.0000 Cl  0  0  0  0  0  0  0  0  0  0  0  0
    0.7145    1.2375    0.0000 C   0  0  0  0  0  0  0  0  0  0  0  0
    1.4289    0.8250    0.0000 C   0  0  0  0  0  0  0  0  0  0  0  0
    1.4289   -0.0000    0.0000 C   0  0  0  0  0  0  0  0  0  0  0  0
    0.7145   -0.4125    0.0000 C   0  0  0  0  0  0  0  0  0  0  0  0
    0.0000    0.0000    0.0000 C   0  0  0  0  0  0  0  0  0  0  0  0
   -0.7145   -0.4125    0.0000 Cl  0  0  0  0  0  0  0  0  0  0  0  0
    0.0000    0.8250    0.0000 C   0  0  0  0  0  0  0  0  0  0  0  0
  1  2  1  0  0  0  0
  2  3  4  0  0  0  0
  3  4  4  0  0  0  0
  4  5  4  0  0  0  0
  5  6  4  0  0  0  0
  6  7  1  0  0  0  0
  6  8  4  0  0  0  0
  2  8  4  0  0  0  0
M  END
> <activity>
6.5

> <InChiKey>
ZPQOPVIELGIULI-UHFFFAOYSA-N

$$$$

  Mrv2220 08292413132D          

 12 12  0  0  0  0            999 V2000
    1.4289    2.4750    0.0000 O   0  0  0  0  0  0  0  0  0  0  0  0
    0.7145    2.0625    0.0000 N   0  3  0  0  0  0  0  0  0  0  0  0
    0.0000    2.4750    0.0000 O   0  5  0  0  0  0  0  0  0  0  0  0
    0.7145    1.2375    0.0000 C   0  0  0  0  0  0  0  0  0  0  0  0
    1.4289    0.8250    0.0000 C   0  0  0  0  0  0  0  0  0  0  0  0
    1.4289   -0.0000    0.0000 C   0  0  0  0  0  0  0  0  0  0  0  0
    0.7145   -0.4125    0.0000 C   0  0  0  0  0  0  0  0  0  0  0  0
    0.0000    0.0000    0.0000 C   0  0  0  0  0  0  0  0  0  0  0  0
   -0.7145   -0.4125    0.0000 N   0  3  0  0  0  0  0  0  0  0  0  0
   -0.7145   -1.2375    0.0000 O   0  0  0  0  0  0  0  0  0  0  0  0
   -1.4289    0.0000    0.0000 O   0  5  0  0  0  0  0  0  0  0  0  0
    0.0000    0.8250    0.0000 C   0  0  0  0  0  0  0  0  0  0  0  0
  1  2  2  0  0  0  0
  2  3  1  0  0  0  0
  2  4  1  0  0  0  0
  4  5  4  0  0  0  0
  5  6  4  0  0  0  0
  6  7  4  0  0  0  0
  7  8  4  0  0  0  0
  8  9  1  0  0  0  0
  9 10  2  0  0  0  0
  9 11  1  0  0  0  0
  8 12  4  0  0  0  0
  4 12  4  0  0  0  0
M  CHG  4   2   1   3  -1   9   1  11  -1
M  END
> <activity>
11.1

> <InChiKey>
WDCYWAQPCXBPJA-UHFFFAOYSA-N

$$$$

  Mrv2220 08292413132D          

 17 18  0  0  0  0            999 V2000
    2.8579    0.0000    0.0000 O   0  0  0  0  0  0  0  0  0  0  0  0
    3.5724   -0.4125    0.0000 C   0  0  0  0  0  0  0  0  0  0  0  0
    3.5724   -1.2375    0.0000 C   0  0  0  0  0  0  0  0  0  0  0  0
    2.8579   -1.6500    0.0000 C   0  0  0  0  0  0  0  0  0  0  0  0
    2.1434   -1.2375    0.0000 O   0  0  0  0  0  0  0  0  0  0  0  0
    2.8579   -2.4750    0.0000 C   0  0  0  0  0  0  0  0  0  0  0  0
    3.5724   -2.8875    0.0000 C   0  0  0  0  0  0  0  0  0  0  0  0
    3.5724   -3.7125    0.0000 C   0  0  0  0  0  0  0  0  0  0  0  0
    2.8579   -4.1250    0.0000 C   0  0  0  0  0  0  0  0  0  0  0  0
    2.1434   -3.7125    0.0000 C   0  0  0  0  0  0  0  0  0  0  0  0
    2.1434   -2.8875    0.0000 C   0  0  0  0  0  0  0  0  0  0  0  0
    4.2868    0.0000    0.0000 C   0  0  0  0  0  0  0  0  0  0  0  0
    4.2868    0.8250    0.0000 C   0  0  0  0  0  0  0  0  0  0  0  0
    5.0013    1.2375    0.0000 C   0  0  0  0  0  0  0  0  0  0  0  0
    5.7158    0.8250    0.0000 C   0  0  0  0  0  0  0  0  0  0  0  0
    5.7158   -0.0000    0.0000 C   0  0  0  0  0  0  0  0  0  0  0  0
    5.0013   -0.4125    0.0000 C   0  0  0  0  0  0  0  0  0  0  0  0
  1  2  2  0  0  0  0
  2  3  1  0  0  0  0
  3  4  1  0  0  0  0
  4  5  2  0  0  0  0
  4  6  1  0  0  0  0
  6  7  4  0  0  0  0
  7  8  4  0  0  0  0
  8  9  4  0  0  0  0
  9 10  4  0  0  0  0
 10 11  4  0  0  0  0
  6 11  4  0  0  0  0
  2 12  1  0  0  0  0
 12 13  4  0  0  0  0
 13 14  4  0  0  0  0
 14 15  4  0  0  0  0
 15 16  4  0  0  0  0
 16 17  4  0  0  0  0
 12 17  4  0  0  0  0
M  END
> <activity>
71.3

> <InChiKey>
NZZIMKJIVMHWJC-UHFFFAOYSA-N

$$$$

  Mrv2220 08292413132D          

 12 12  0  0  0  0            999 V2000
    0.0000    2.4750    0.0000 C   0  0  0  0  0  0  0  0  0  0  0  0
    0.7145    2.0625    0.0000 C   0  0  0  0  0  0  0  0  0  0  0  0
    0.7145    1.2375    0.0000 N   0  0  0  0  0  0  0  0  0  0  0  0
    1.4289    0.8250    0.0000 C   0  0  0  0  0  0  0  0  0  0  0  0
    1.4289   -0.0000    0.0000 N   0  0  0  0  0  0  0  0  0  0  0  0
    2.1434   -0.4125    0.0000 C   0  0  0  0  0  0  0  0  0  0  0  0
    2.8579   -0.0000    0.0000 C   0  0  0  0  0  0  0  0  0  0  0  0
    0.7145   -0.4125    0.0000 C   0  0  0  0  0  0  0  0  0  0  0  0
    0.0000    0.0000    0.0000 N   0  0  0  0  0  0  0  0  0  0  0  0
   -0.7145   -0.4125    0.0000 C   0  0  0  0  0  0  0  0  0  0  0  0
   -1.4289    0.0000    0.0000 C   0  0  0  0  0  0  0  0  0  0  0  0
    0.0000    0.8250    0.0000 C   0  0  0  0  0  0  0  0  0  0  0  0
  1  2  1  0  0  0  0
  2  3  1  0  0  0  0
  3  4  1  0  0  0  0
  4  5  1  0  0  0  0
  5  6  1  0  0  0  0
  6  7  1  0  0  0  0
  5  8  1  0  0  0  0
  8  9  1  0  0  0  0
  9 10  1  0  0  0  0
 10 11  1  0  0  0  0
  9 12  1  0  0  0  0
  3 12  1  0  0  0  0
M  END
> <activity>
0.2

> <InChiKey>
XYRTVIAPRQLSOW-UHFFFAOYSA-N

$$$$

  Mrv2220 08292413132D          

 15 15  0  0  0  0            999 V2000
    0.0000    2.4750    0.0000 C   0  0  0  0  0  0  0  0  0  0  0  0
    0.7145    2.0625    0.0000 C   0  0  0  0  0  0  0  0  0  0  0  0
    1.4289    2.4750    0.0000 C   0  0  0  0  0  0  0  0  0  0  0  0
    0.7145    1.2375    0.0000 C   0  0  0  0  0  0  0  0  0  0  0  0
    1.4289    0.8250    0.0000 C   0  0  0  0  0  0  0  0  0  0  0  0
    1.4289   -0.0000    0.0000 C   0  0  0  0  0  0  0  0  0  0  0  0
    2.1434   -0.4125    0.0000 C   0  0  0  0  0  0  0  0  0  0  0  0
    2.8579   -0.0000    0.0000 C   0  0  0  0  0  0  0  0  0  0  0  0
    2.1434   -1.2375    0.0000 C   0  0  0  0  0  0  0  0  0  0  0  0
    0.7145   -0.4125    0.0000 C   0  0  0  0  0  0  0  0  0  0  0  0
    0.0000    0.0000    0.0000 C   0  0  0  0  0  0  0  0  0  0  0  0
   -0.7145   -0.4125    0.0000 C   0  0  0  0  0  0  0  0  0  0  0  0
   -1.4289    0.0000    0.0000 C   0  0  0  0  0  0  0  0  0  0  0  0
   -0.7145   -1.2375    0.0000 C   0  0  0  0  0  0  0  0  0  0  0  0
    0.0000    0.8250    0.0000 C   0  0  0  0  0  0  0  0  0  0  0  0
  1  2  1  0  0  0  0
  2  3  1  0  0  0  0
  2  4  1  0  0  0  0
  4  5  4  0  0  0  0
  5  6  4  0  0  0  0
  6  7  1  0  0  0  0
  7  8  1  0  0  0  0
  7  9  1  0  0  0  0
  6 10  4  0  0  0  0
 10 11  4  0  0  0  0
 11 12  1  0  0  0  0
 12 13  1  0  0  0  0
 12 14  1  0  0  0  0
 11 15  4  0  0  0  0
  4 15  4  0  0  0  0
M  END
> <activity>
-31.8

> <InChiKey>
VUMCUSHVMYIRMB-UHFFFAOYSA-N

$$$$

  Mrv2220 08292413132D          

 20 20  0  0  0  0            999 V2000
    2.3160    2.0372    0.0000 C   0  0  0  0  0  0  0  0  0  0  0  0
    1.4981    2.1449    0.0000 C   0  0  0  0  0  0  0  0  0  0  0  0
    0.9959    1.4904    0.0000 Si  0  0  0  0  0  0  0  0  0  0  0  0
    0.4936    2.1449    0.0000 C   0  0  0  0  0  0  0  0  0  0  0  0
    1.7581    1.1747    0.0000 O   0  0  0  0  0  0  0  0  0  0  0  0
    2.0738    0.4125    0.0000 Si  0  0  0  0  0  0  0  0  0  0  0  0
    2.7283    0.9147    0.0000 C   0  0  0  0  0  0  0  0  0  0  0  0
    2.7283   -0.0897    0.0000 C   0  0  0  0  0  0  0  0  0  0  0  0
    2.6206   -0.9077    0.0000 C   0  0  0  0  0  0  0  0  0  0  0  0
    1.7581   -0.3497    0.0000 O   0  0  0  0  0  0  0  0  0  0  0  0
    0.9959   -0.6654    0.0000 Si  0  0  0  0  0  0  0  0  0  0  0  0
    1.4981   -1.3199    0.0000 C   0  0  0  0  0  0  0  0  0  0  0  0
    0.4936   -1.3199    0.0000 C   0  0  0  0  0  0  0  0  0  0  0  0
    0.8093   -2.0821    0.0000 C   0  0  0  0  0  0  0  0  0  0  0  0
    0.2337   -0.3497    0.0000 O   0  0  0  0  0  0  0  0  0  0  0  0
   -0.0821    0.4125    0.0000 Si  0  0  0  0  0  0  0  0  0  0  0  0
   -0.7366   -0.0897    0.0000 C   0  0  0  0  0  0  0  0  0  0  0  0
   -0.7366    0.9147    0.0000 C   0  0  0  0  0  0  0  0  0  0  0  0
   -0.6289    1.7327    0.0000 C   0  0  0  0  0  0  0  0  0  0  0  0
    0.2337    1.1747    0.0000 O   0  0  0  0  0  0  0  0  0  0  0  0
  1  2  2  0  0  0  0
  2  3  1  0  0  0  0
  3  4  1  0  0  0  0
  3  5  1  0  0  0  0
  5  6  1  0  0  0  0
  6  7  1  0  0  0  0
  6  8  1  0  0  0  0
  8  9  2  0  0  0  0
  6 10  1  0  0  0  0
 10 11  1  0  0  0  0
 11 12  1  0  0  0  0
 11 13  1  0  0  0  0
 13 14  2  0  0  0  0
 11 15  1  0  0  0  0
 15 16  1  0  0  0  0
 16 17  1  0  0  0  0
 16 18  1  0  0  0  0
 18 19  2  0  0  0  0
 16 20  1  0  0  0  0
  3 20  1  0  0  0  0
M  END
> <activity>
99.7

> <InChiKey>
VMAWODUEPLAHOE-UHFFFAOYSA-N

$$$$

  Mrv2220 08292413132D          

  8  8  0  0  0  0            999 V2000
    0.7145    2.0625    0.0000 N   0  0  0  0  0  0  0  0  0  0  0  0
    0.7145    1.2375    0.0000 C   0  0  0  0  0  0  0  0  0  0  0  0
    1.4289    0.8250    0.0000 C   0  0  0  0  0  0  0  0  0  0  0  0
    1.4289   -0.0000    0.0000 C   0  0  0  0  0  0  0  0  0  0  0  0
    0.7145   -0.4125    0.0000 C   0  0  0  0  0  0  0  0  0  0  0  0
    0.7145   -1.2375    0.0000 N   0  0  0  0  0  0  0  0  0  0  0  0
    0.0000    0.0000    0.0000 C   0  0  0  0  0  0  0  0  0  0  0  0
    0.0000    0.8250    0.0000 C   0  0  0  0  0  0  0  0  0  0  0  0
  1  2  1  0  0  0  0
  2  3  4  0  0  0  0
  3  4  4  0  0  0  0
  4  5  4  0  0  0  0
  5  6  1  0  0  0  0
  5  7  4  0  0  0  0
  7  8  4  0  0  0  0
  2  8  4  0  0  0  0
M  END
> <activity>
108.1

> <InChiKey>
CBCKQZAAMUWICA-UHFFFAOYSA-N

$$$$

  Mrv2220 08292413132D          

 12 12  0  0  0  0            999 V2000
    0.0000    2.4750    0.0000 O   0  0  0  0  0  0  0  0  0  0  0  0
    0.7145    2.0625    0.0000 C   0  0  0  0  0  0  0  0  0  0  0  0
    1.4289    2.4750    0.0000 O   0  0  0  0  0  0  0  0  0  0  0  0
    0.7145    1.2375    0.0000 C   0  0  0  0  0  0  0  0  0  0  0  0
    1.4289    0.8250    0.0000 C   0  0  0  0  0  0  0  0  0  0  0  0
    1.4289   -0.0000    0.0000 C   0  0  0  0  0  0  0  0  0  0  0  0
    0.7145   -0.4125    0.0000 C   0  0  0  0  0  0  0  0  0  0  0  0
    0.7145   -1.2375    0.0000 C   0  0  0  0  0  0  0  0  0  0  0  0
    1.4289   -1.6500    0.0000 O   0  0  0  0  0  0  0  0  0  0  0  0
   -0.0000   -1.6500    0.0000 O   0  0  0  0  0  0  0  0  0  0  0  0
    0.0000    0.0000    0.0000 C   0  0  0  0  0  0  0  0  0  0  0  0
    0.0000    0.8250    0.0000 C   0  0  0  0  0  0  0  0  0  0  0  0
  1  2  2  0  0  0  0
  2  3  1  0  0  0  0
  2  4  1  0  0  0  0
  4  5  1  0  0  0  0
  5  6  1  0  0  0  0
  6  7  1  0  0  0  0
  7  8  1  0  0  0  0
  8  9  2  0  0  0  0
  8 10  1  0  0  0  0
  7 11  1  0  0  0  0
 11 12  1  0  0  0  0
  4 12  1  0  0  0  0
M  END
> <activity>
20.8

> <InChiKey>
PXGZQGDTEZPERC-UHFFFAOYSA-N

$$$$

  Mrv2220 08292413132D          

 18 20  0  0  0  0            999 V2000
    3.5724   -1.2375    0.0000 N   0  0  0  0  0  0  0  0  0  0  0  0
    3.5724   -0.4125    0.0000 C   0  0  0  0  0  0  0  0  0  0  0  0
    4.2868    0.0000    0.0000 C   0  0  0  0  0  0  0  0  0  0  0  0
    4.2868    0.8250    0.0000 C   0  0  0  0  0  0  0  0  0  0  0  0
    3.5724    1.2375    0.0000 C   0  0  0  0  0  0  0  0  0  0  0  0
    3.5724    2.0625    0.0000 N   0  0  0  0  0  0  0  0  0  0  0  0
    2.8579    0.8250    0.0000 C   0  0  0  0  0  0  0  0  0  0  0  0
    2.8579   -0.0000    0.0000 C   0  0  0  0  0  0  0  0  0  0  0  0
    2.1434   -0.4125    0.0000 C   0  0  0  0  0  0  0  0  0  0  0  0
    2.1434   -1.2375    0.0000 O   0  0  0  0  0  0  0  0  0  0  0  0
    1.4289   -0.0000    0.0000 C   0  0  0  0  0  0  0  0  0  0  0  0
    0.7145   -0.4125    0.0000 C   0  0  0  0  0  0  0  0  0  0  0  0
   -0.0000    0.0000    0.0000 C   0  0  0  0  0  0  0  0  0  0  0  0
    0.0000    0.8250    0.0000 C   0  0  0  0  0  0  0  0  0  0  0  0
    0.7145    1.2375    0.0000 C   0  0  0  0  0  0  0  0  0  0  0  0
    1.4289    0.8250    0.0000 C   0  0  0  0  0  0  0  0  0  0  0  0
    2.1434    1.2375    0.0000 C   0  0  0  0  0  0  0  0  0  0  0  0
    2.1434    2.0625    0.0000 O   0  0  0  0  0  0  0  0  0  0  0  0
  1  2  1  0  0  0  0
  2  3  4  0  0  0  0
  3  4  4  0  0  0  0
  4  5  4  0  0  0  0
  5  6  1  0  0  0  0
  5  7  4  0  0  0  0
  7  8  4  0  0  0  0
  2  8  4  0  0  0  0
  8  9  1  0  0  0  0
  9 10  2  0  0  0  0
  9 11  1  0  0  0  0
 11 12  4  0  0  0  0
 12 13  4  0  0  0  0
 13 14  4  0  0  0  0
 14 15  4  0  0  0  0
 15 16  4  0  0  0  0
 11 16  4  0  0  0  0
 16 17  1  0  0  0  0
  7 17  1  0  0  0  0
 17 18  2  0  0  0  0
M  END
> <activity>
69.5

> <InChiKey>
FBMQNRKSAWNXBT-UHFFFAOYSA-N

$$$$

  Mrv2220 08292413132D          

  8  8  0  0  0  0            999 V2000
    0.7145    2.0625    0.0000 Cl  0  0  0  0  0  0  0  0  0  0  0  0
    0.7145    1.2375    0.0000 C   0  0  0  0  0  0  0  0  0  0  0  0
    1.4289    0.8250    0.0000 C   0  0  0  0  0  0  0  0  0  0  0  0
    1.4289   -0.0000    0.0000 C   0  0  0  0  0  0  0  0  0  0  0  0
    0.7145   -0.4125    0.0000 C   0  0  0  0  0  0  0  0  0  0  0  0
    0.7145   -1.2375    0.0000 Cl  0  0  0  0  0  0  0  0  0  0  0  0
    0.0000    0.0000    0.0000 C   0  0  0  0  0  0  0  0  0  0  0  0
    0.0000    0.8250    0.0000 C   0  0  0  0  0  0  0  0  0  0  0  0
  1  2  1  0  0  0  0
  2  3  4  0  0  0  0
  3  4  4  0  0  0  0
  4  5  4  0  0  0  0
  5  6  1  0  0  0  0
  5  7  4  0  0  0  0
  7  8  4  0  0  0  0
  2  8  4  0  0  0  0
M  END
> <activity>
-12.7

> <InChiKey>
OCJBOOLMMGQPQU-UHFFFAOYSA-N

$$$$

  Mrv2220 08292413132D          

 12 13  0  0  0  0            999 V2000
    1.4289   -2.4750    0.0000 C   0  0  0  0  0  0  0  0  0  0  0  0
    1.4289   -1.6500    0.0000 C   0  0  0  0  0  0  0  0  0  0  0  0
    0.7145   -1.2375    0.0000 C   0  0  0  0  0  0  0  0  0  0  0  0
    0.7145   -0.4125    0.0000 C   0  0  0  0  0  0  0  0  0  0  0  0
    1.4289    0.0000    0.0000 C   0  0  0  0  0  0  0  0  0  0  0  0
    1.4289    0.8250    0.0000 C   0  0  0  0  0  0  0  0  0  0  0  0
    2.1434   -0.4125    0.0000 C   0  0  0  0  0  0  0  0  0  0  0  0
    2.8579    0.0000    0.0000 C   0  0  0  0  0  0  0  0  0  0  0  0
    3.5724   -0.4125    0.0000 C   0  0  0  0  0  0  0  0  0  0  0  0
    3.5724   -1.2375    0.0000 C   0  0  0  0  0  0  0  0  0  0  0  0
    2.8579   -1.6500    0.0000 C   0  0  0  0  0  0  0  0  0  0  0  0
    2.1434   -1.2375    0.0000 C   0  0  0  0  0  0  0  0  0  0  0  0
  1  2  1  0  0  0  0
  2  3  4  0  0  0  0
  3  4  4  0  0  0  0
  4  5  4  0  0  0  0
  5  6  1  0  0  0  0
  5  7  4  0  0  0  0
  7  8  4  0  0  0  0
  8  9  4  0  0  0  0
  9 10  4  0  0  0  0
 10 11  4  0  0  0  0
 11 12  4  0  0  0  0
  2 12  4  0  0  0  0
  7 12  4  0  0  0  0
M  END
> <activity>
55.0

> <InChiKey>
APQSQLNWAIULLK-UHFFFAOYSA-N

$$$$

  Mrv2220 08292413132D          

 12 12  0  0  0  0            999 V2000
    1.4289    0.8250    0.0000 C   0  0  0  0  0  0  0  0  0  0  0  0
    2.1434    1.2375    0.0000 C   0  0  0  0  0  0  0  0  0  0  0  0
    2.8579    0.8250    0.0000 C   0  0  0  0  0  0  0  0  0  0  0  0
    2.8579   -0.0000    0.0000 C   0  0  0  0  0  0  0  0  0  0  0  0
    2.1434   -0.4125    0.0000 C   0  0  0  0  0  0  0  0  0  0  0  0
    2.1434   -1.2375    0.0000 C   0  0  0  0  0  0  0  0  0  0  0  0
    1.4289   -1.6500    0.0000 C   0  0  0  0  0  0  0  0  0  0  0  0
    0.7145   -1.2375    0.0000 C   0  0  0  0  0  0  0  0  0  0  0  0
    0.7145   -0.4125    0.0000 C   0  0  0  0  0  0  0  0  0  0  0  0
   -0.0000    0.0000    0.0000 C   0  0  0  0  0  0  0  0  0  0  0  0
   -0.0000    0.8250    0.0000 C   0  0  0  0  0  0  0  0  0  0  0  0
    0.7145    1.2375    0.0000 C   0  0  0  0  0  0  0  0  0  0  0  0
  1  2  2  0  0  0  0
  2  3  1  0  0  0  0
  3  4  1  0  0  0  0
  5  4  1  4  0  0  0
  5  6  2  0  0  0  0
  6  7  1  0  0  0  0
  7  8  1  0  0  0  0
  9  8  1  4  0  0  0
  9 10  2  0  0  0  0
 10 11  1  0  0  0  0
 11 12  1  0  0  0  0
  1 12  1  4  0  0  0
M  END
> <activity>
10.5

> <InChiKey>
ZOLLIQAKMYWTBR-UHFFFAOYSA-N

$$$$

  Mrv2220 08292413132D          

  8  7  0  0  0  0            999 V2000
    1.0461    1.4289    0.0000 N   0  0  0  0  0  0  0  0  0  0  0  0
    1.7605    1.8414    0.0000 C   0  0  0  0  0  0  0  0  0  0  0  0
    2.4750    1.4289    0.0000 C   0  0  0  0  0  0  0  0  0  0  0  0
    3.1895    1.8414    0.0000 C   0  0  0  0  0  0  0  0  0  0  0  0
    3.9039    1.4289    0.0000 C   0  0  0  0  0  0  0  0  0  0  0  0
    4.6184    1.8414    0.0000 C   0  0  0  0  0  0  0  0  0  0  0  0
    5.3329    1.4289    0.0000 C   0  0  0  0  0  0  0  0  0  0  0  0
    6.0474    1.8414    0.0000 N   0  0  0  0  0  0  0  0  0  0  0  0
  1  2  1  0  0  0  0
  2  3  1  0  0  0  0
  3  4  1  0  0  0  0
  4  5  1  0  0  0  0
  5  6  1  0  0  0  0
  6  7  1  0  0  0  0
  7  8  1  0  0  0  0
M  END
> <activity>
-5.1

> <InChiKey>
NAQMVNRVTILPCV-UHFFFAOYSA-N

$$$$

  Mrv2220 08292413132D          

 13 12  0  0  0  0            999 V2000
    3.5211    2.8579    0.0000 C   0  0  0  0  0  0  0  0  0  0  0  0
    4.2355    3.2704    0.0000 C   0  0  0  0  0  0  0  0  0  0  0  0
    4.9500    2.8579    0.0000 C   0  0  0  0  0  0  0  0  0  0  0  0
    5.6645    3.2704    0.0000 C   0  0  0  0  0  0  0  0  0  0  0  0
    6.3789    2.8579    0.0000 C   0  0  0  0  0  0  0  0  0  0  0  0
    7.0934    3.2704    0.0000 C   0  0  0  0  0  0  0  0  0  0  0  0
    7.8079    2.8579    0.0000 C   0  0  0  0  0  0  0  0  0  0  0  0
    8.5224    3.2704    0.0000 C   0  0  0  0  0  0  0  0  0  0  0  0
    9.2368    2.8579    0.0000 C   0  0  0  0  0  0  0  0  0  0  0  0
    9.9513    3.2704    0.0000 C   0  0  0  0  0  0  0  0  0  0  0  0
   10.6658    2.8579    0.0000 C   0  0  0  0  0  0  0  0  0  0  0  0
   11.3802    3.2704    0.0000 O   0  0  0  0  0  0  0  0  0  0  0  0
   10.6658    2.0329    0.0000 O   0  0  0  0  0  0  0  0  0  0  0  0
  1  2  2  0  0  0  0
  2  3  1  0  0  0  0
  3  4  1  0  0  0  0
  4  5  1  0  0  0  0
  5  6  1  0  0  0  0
  6  7  1  0  0  0  0
  7  8  1  0  0  0  0
  8  9  1  0  0  0  0
  9 10  1  0  0  0  0
 10 11  1  0  0  0  0
 11 12  2  0  0  0  0
 11 13  1  0  0  0  0
M  END
> <activity>
92.6

> <InChiKey>
FRPZMMHWLSIFAZ-UHFFFAOYSA-N

$$$$

  Mrv2220 08292413132D          

 31 34  0  0  0  0            999 V2000
    2.0420   -4.6770    0.0000 C   0  0  0  0  0  0  0  0  0  0  0  0
    2.7565   -5.0895    0.0000 C   0  0  0  0  0  0  0  0  0  0  0  0
    3.4710   -4.6770    0.0000 C   0  0  0  0  0  0  0  0  0  0  0  0
    4.1854   -5.0895    0.0000 C   0  0  0  0  0  0  0  0  0  0  0  0
    4.8999   -4.6770    0.0000 C   0  0  0  0  0  0  0  0  0  0  0  0
    5.6144   -5.0895    0.0000 C   0  0  0  0  0  0  0  0  0  0  0  0
    5.6144   -5.9145    0.0000 O   0  0  0  0  0  0  0  0  0  0  0  0
    6.3289   -4.6770    0.0000 O   0  0  0  0  0  0  0  0  0  0  0  0
    6.3289   -3.8520    0.0000 C   0  0  0  0  0  0  0  0  0  0  0  0
    7.1493   -3.9383    0.0000 C   0  0  0  0  0  0  0  0  0  0  0  0
    7.6343   -3.2708    0.0000 C   0  0  0  0  0  0  0  0  0  0  0  0
    7.4849   -4.6919    0.0000 O   0  0  0  0  0  0  0  0  0  0  0  0
    5.5084   -3.9383    0.0000 C   0  0  0  0  0  0  0  0  0  0  0  0
    5.1728   -3.1846    0.0000 C   0  0  0  0  0  0  0  0  0  0  0  0
    5.7859   -2.6326    0.0000 C   0  0  0  0  0  0  0  0  0  0  0  0
    5.7859   -1.8076    0.0000 C   0  0  0  0  0  0  0  0  0  0  0  0
    5.0714   -1.3951    0.0000 C   0  0  0  0  0  0  0  0  0  0  0  0
    5.0714   -0.5701    0.0000 C   0  0  0  0  0  0  0  0  0  0  0  0
    5.7859   -0.1576    0.0000 C   0  0  0  0  0  0  0  0  0  0  0  0
    5.7859    0.6674    0.0000 C   0  0  0  0  0  0  0  0  0  0  0  0
    6.5004    1.0799    0.0000 C   0  0  0  0  0  0  0  0  0  0  0  0
    6.5004    1.9049    0.0000 O   0  0  0  0  0  0  0  0  0  0  0  0
    7.2149    0.6674    0.0000 C   0  0  0  0  0  0  0  0  0  0  0  0
    7.2149   -0.1576    0.0000 C   0  0  0  0  0  0  0  0  0  0  0  0
    6.5004   -0.5701    0.0000 C   0  0  0  0  0  0  0  0  0  0  0  0
    7.2149   -0.9826    0.0000 C   0  0  0  0  0  0  0  0  0  0  0  0
    6.5004   -1.3951    0.0000 C   0  0  0  0  0  0  0  0  0  0  0  0
    7.2149   -1.8076    0.0000 C   0  0  0  0  0  0  0  0  0  0  0  0
    7.2149   -2.6326    0.0000 C   0  0  0  0  0  0  0  0  0  0  0  0
    6.5004   -3.0451    0.0000 C   0  0  0  0  0  0  0  0  0  0  0  0
    7.1678   -3.5300    0.0000 C   0  0  0  0  0  0  0  0  0  0  0  0
  1  2  1  0  0  0  0
  2  3  1  0  0  0  0
  3  4  1  0  0  0  0
  4  5  1  0  0  0  0
  5  6  1  0  0  0  0
  6  7  2  0  0  0  0
  6  8  1  0  0  0  0
  8  9  1  0  0  0  0
  9 10  1  0  0  0  0
 10 11  1  0  0  0  0
 10 12  2  0  0  0  0
  9 13  1  0  0  0  0
 13 14  1  0  0  0  0
 14 15  1  0  0  0  0
 15 16  1  0  0  0  0
 16 17  1  0  0  0  0
 17 18  1  0  0  0  0
 18 19  1  0  0  0  0
 19 20  2  0  0  0  0
 20 21  1  0  0  0  0
 21 22  2  0  0  0  0
 21 23  1  0  0  0  0
 23 24  1  0  0  0  0
 24 25  1  0  0  0  0
 19 25  1  0  0  0  0
 25 26  1  0  0  0  0
 25 27  1  0  0  0  0
 16 27  1  0  0  0  0
 27 28  1  0  0  0  0
 28 29  1  0  0  0  0
 29 30  1  0  0  0  0
 15 30  1  0  0  0  0
  9 30  1  0  0  0  0
 30 31  1  0  0  0  0
M  END
> <activity>
29.0

> <InChiKey>
DOMWKUIIPQCAJU-UHFFFAOYSA-N

$$$$

  Mrv2220 08292413132D          

 22 25  0  0  0  0            999 V2000
    1.4440   -2.7799    0.0000 C   0  0  0  0  0  0  0  0  0  0  0  0
    2.2561   -2.6347    0.0000 C   0  0  0  0  0  0  0  0  0  0  0  0
    3.0683   -2.4895    0.0000 C   0  0  0  0  0  0  0  0  0  0  0  0
    3.1278   -3.3123    0.0000 O   0  0  0  0  0  0  0  0  0  0  0  0
    2.8390   -1.6970    0.0000 C   0  0  0  0  0  0  0  0  0  0  0  0
    3.5218   -1.2340    0.0000 C   0  0  0  0  0  0  0  0  0  0  0  0
    4.1731   -1.7404    0.0000 C   0  0  0  0  0  0  0  0  0  0  0  0
    4.9853   -1.5952    0.0000 C   0  0  0  0  0  0  0  0  0  0  0  0
    5.2655   -0.8192    0.0000 C   0  0  0  0  0  0  0  0  0  0  0  0
    6.0777   -0.6740    0.0000 C   0  0  0  0  0  0  0  0  0  0  0  0
    6.6095   -1.3047    0.0000 C   0  0  0  0  0  0  0  0  0  0  0  0
    7.4216   -1.1595    0.0000 C   0  0  0  0  0  0  0  0  0  0  0  0
    7.9534   -1.7902    0.0000 C   0  0  0  0  0  0  0  0  0  0  0  0
    8.7655   -1.6450    0.0000 O   0  0  0  0  0  0  0  0  0  0  0  0
    7.6731   -2.5662    0.0000 C   0  0  0  0  0  0  0  0  0  0  0  0
    6.8610   -2.7114    0.0000 C   0  0  0  0  0  0  0  0  0  0  0  0
    6.3292   -2.0807    0.0000 C   0  0  0  0  0  0  0  0  0  0  0  0
    5.5171   -2.2259    0.0000 C   0  0  0  0  0  0  0  0  0  0  0  0
    5.2368   -3.0018    0.0000 C   0  0  0  0  0  0  0  0  0  0  0  0
    4.4247   -3.1470    0.0000 C   0  0  0  0  0  0  0  0  0  0  0  0
    3.8928   -2.5163    0.0000 C   0  0  0  0  0  0  0  0  0  0  0  0
    3.5330   -3.2587    0.0000 C   0  0  0  0  0  0  0  0  0  0  0  0
  1  2  3  0  0  0  0
  2  3  1  0  0  0  0
  3  4  1  0  0  0  0
  3  5  1  0  0  0  0
  5  6  1  0  0  0  0
  6  7  1  0  0  0  0
  7  8  1  0  0  0  0
  8  9  1  0  0  0  0
  9 10  1  0  0  0  0
 10 11  1  0  0  0  0
 11 12  4  0  0  0  0
 12 13  4  0  0  0  0
 13 14  1  0  0  0  0
 13 15  4  0  0  0  0
 15 16  4  0  0  0  0
 16 17  4  0  0  0  0
 11 17  4  0  0  0  0
 17 18  1  0  0  0  0
  8 18  1  0  0  0  0
 18 19  1  0  0  0  0
 19 20  1  0  0  0  0
 20 21  1  0  0  0  0
  7 21  1  0  0  0  0
  3 21  1  0  0  0  0
 21 22  1  0  0  0  0
M  END
> <activity>
87.9

> <InChiKey>
BFPYWIDHMRZLRN-UHFFFAOYSA-N

$$$$

  Mrv2220 08292413132D          

 24 27  0  0  0  0            999 V2000
    1.9758   -3.4106    0.0000 C   0  0  0  0  0  0  0  0  0  0  0  0
    2.2561   -2.6347    0.0000 C   0  0  0  0  0  0  0  0  0  0  0  0
    1.7243   -2.0040    0.0000 O   0  0  0  0  0  0  0  0  0  0  0  0
    3.0683   -2.4895    0.0000 C   0  0  0  0  0  0  0  0  0  0  0  0
    3.1278   -3.3123    0.0000 O   0  0  0  0  0  0  0  0  0  0  0  0
    2.8390   -1.6970    0.0000 C   0  0  0  0  0  0  0  0  0  0  0  0
    3.5218   -1.2340    0.0000 C   0  0  0  0  0  0  0  0  0  0  0  0
    4.1731   -1.7404    0.0000 C   0  0  0  0  0  0  0  0  0  0  0  0
    4.9853   -1.5952    0.0000 C   0  0  0  0  0  0  0  0  0  0  0  0
    5.2655   -0.8192    0.0000 C   0  0  0  0  0  0  0  0  0  0  0  0
    6.0777   -0.6740    0.0000 C   0  0  0  0  0  0  0  0  0  0  0  0
    6.6095   -1.3047    0.0000 C   0  0  0  0  0  0  0  0  0  0  0  0
    7.4216   -1.1595    0.0000 C   0  0  0  0  0  0  0  0  0  0  0  0
    7.9534   -1.7902    0.0000 C   0  0  0  0  0  0  0  0  0  0  0  0
    8.7655   -1.6450    0.0000 O   0  0  0  0  0  0  0  0  0  0  0  0
    7.6731   -2.5662    0.0000 C   0  0  0  0  0  0  0  0  0  0  0  0
    6.8610   -2.7114    0.0000 C   0  0  0  0  0  0  0  0  0  0  0  0
    6.3292   -2.0807    0.0000 C   0  0  0  0  0  0  0  0  0  0  0  0
    6.0489   -2.8566    0.0000 C   0  0  0  0  0  0  0  0  0  0  0  0
    5.5171   -2.2259    0.0000 C   0  0  0  0  0  0  0  0  0  0  0  0
    5.2368   -3.0018    0.0000 C   0  0  0  0  0  0  0  0  0  0  0  0
    4.4247   -3.1470    0.0000 C   0  0  0  0  0  0  0  0  0  0  0  0
    3.8928   -2.5163    0.0000 C   0  0  0  0  0  0  0  0  0  0  0  0
    3.5330   -3.2587    0.0000 C   0  0  0  0  0  0  0  0  0  0  0  0
  1  2  1  0  0  0  0
  2  3  2  0  0  0  0
  2  4  1  0  0  0  0
  4  5  1  0  0  0  0
  4  6  1  0  0  0  0
  6  7  1  0  0  0  0
  7  8  1  0  0  0  0
  8  9  1  0  0  0  0
  9 10  1  0  0  0  0
 10 11  1  0  0  0  0
 11 12  1  0  0  0  0
 12 13  2  0  0  0  0
 13 14  1  0  0  0  0
 14 15  2  0  0  0  0
 14 16  1  0  0  0  0
 16 17  1  0  0  0  0
 17 18  1  0  0  0  0
 12 18  1  0  0  0  0
 18 19  1  0  0  0  0
 18 20  1  0  0  0  0
  9 20  1  0  0  0  0
 20 21  1  0  0  0  0
 21 22  1  0  0  0  0
 22 23  1  0  0  0  0
  8 23  1  0  0  0  0
  4 23  1  0  0  0  0
 23 24  1  0  0  0  0
M  END
> <activity>
13.9

> <InChiKey>
DBPWSSGDRRHUNT-UHFFFAOYSA-N

$$$$

  Mrv2220 08292413132D          

 11 10  0  0  0  0            999 V2000
    4.2355    3.2704    0.0000 C   0  0  0  0  0  0  0  0  0  0  0  0
    4.9500    2.8579    0.0000 C   0  0  0  0  0  0  0  0  0  0  0  0
    5.6645    3.2704    0.0000 C   0  0  0  0  0  0  0  0  0  0  0  0
    6.3789    2.8579    0.0000 C   0  0  0  0  0  0  0  0  0  0  0  0
    7.0934    3.2704    0.0000 O   0  0  0  0  0  0  0  0  0  0  0  0
    7.8079    2.8579    0.0000 C   0  0  0  0  0  0  0  0  0  0  0  0
    8.5224    3.2704    0.0000 C   0  0  0  0  0  0  0  0  0  0  0  0
    9.2368    2.8579    0.0000 O   0  0  0  0  0  0  0  0  0  0  0  0
    9.9513    3.2704    0.0000 C   0  0  0  0  0  0  0  0  0  0  0  0
   10.6658    2.8579    0.0000 C   0  0  0  0  0  0  0  0  0  0  0  0
   11.3802    3.2704    0.0000 O   0  0  0  0  0  0  0  0  0  0  0  0
  1  2  1  0  0  0  0
  2  3  1  0  0  0  0
  3  4  1  0  0  0  0
  4  5  1  0  0  0  0
  5  6  1  0  0  0  0
  6  7  1  0  0  0  0
  7  8  1  0  0  0  0
  8  9  1  0  0  0  0
  9 10  1  0  0  0  0
 10 11  1  0  0  0  0
M  END
> <activity>
8.7

> <InChiKey>
OAYXUHPQHDHDDZ-UHFFFAOYSA-N

$$$$

  Mrv2220 08292413132D          

  6  5  0  0  0  0            999 V2000
   -0.1914    0.7145    0.0000 C   0  0  0  0  0  0  0  0  0  0  0  0
    0.5230    1.1270    0.0000 C   0  0  0  0  0  0  0  0  0  0  0  0
    1.2375    0.7145    0.0000 N   0  0  0  0  0  0  0  0  0  0  0  0
    1.9520    1.1270    0.0000 C   0  0  0  0  0  0  0  0  0  0  0  0
    2.6664    0.7145    0.0000 C   0  0  0  0  0  0  0  0  0  0  0  0
    3.3809    1.1270    0.0000 O   0  0  0  0  0  0  0  0  0  0  0  0
  1  2  1  0  0  0  0
  2  3  1  0  0  0  0
  3  4  1  0  0  0  0
  4  5  1  0  0  0  0
  5  6  1  0  0  0  0
M  END
> <activity>
5.4

> <InChiKey>
MIJDSYMOBYNHOT-UHFFFAOYSA-N

$$$$

  Mrv2220 08292413132D          

 13 13  0  0  0  0            999 V2000
   -0.7145    2.0625    0.0000 C   0  0  0  0  0  0  0  0  0  0  0  0
    0.0000    2.4750    0.0000 C   0  0  0  0  0  0  0  0  0  0  0  0
    0.7145    2.0625    0.0000 O   0  0  0  0  0  0  0  0  0  0  0  0
    0.7145    1.2375    0.0000 C   0  0  0  0  0  0  0  0  0  0  0  0
    1.4289    0.8250    0.0000 C   0  0  0  0  0  0  0  0  0  0  0  0
    1.4289   -0.0000    0.0000 C   0  0  0  0  0  0  0  0  0  0  0  0
    0.7145   -0.4125    0.0000 C   0  0  0  0  0  0  0  0  0  0  0  0
    0.0000    0.0000    0.0000 C   0  0  0  0  0  0  0  0  0  0  0  0
   -0.7145   -0.4125    0.0000 Cl  0  0  0  0  0  0  0  0  0  0  0  0
    0.0000    0.8250    0.0000 C   0  0  0  0  0  0  0  0  0  0  0  0
    0.0000    3.3000    0.0000 C   0  0  0  0  0  0  0  0  0  0  0  0
   -0.7145    3.7125    0.0000 O   0  0  0  0  0  0  0  0  0  0  0  0
    0.7145    3.7125    0.0000 O   0  0  0  0  0  0  0  0  0  0  0  0
  1  2  1  0  0  0  0
  2  3  1  0  0  0  0
  3  4  1  0  0  0  0
  4  5  4  0  0  0  0
  5  6  4  0  0  0  0
  6  7  4  0  0  0  0
  7  8  4  0  0  0  0
  8  9  1  0  0  0  0
  8 10  4  0  0  0  0
  4 10  4  0  0  0  0
  2 11  1  0  0  0  0
 11 12  2  0  0  0  0
 11 13  1  0  0  0  0
M  END
> <activity>
38.8

> <InChiKey>
YNTJKQDWYXUTLZ-UHFFFAOYSA-N

$$$$

  Mrv2220 08292413132D          

 22 21  0  0  0  0            999 V2000
    0.1105   -6.1875    0.0000 O   0  0  0  0  0  0  0  0  0  0  0  0
    0.1105   -5.3625    0.0000 C   0  0  0  0  0  0  0  0  0  0  0  0
    0.8250   -4.9500    0.0000 C   0  0  0  0  0  0  0  0  0  0  0  0
    0.8250   -4.1250    0.0000 C   0  0  0  0  0  0  0  0  0  0  0  0
    1.6500   -4.1250    0.0000 F   0  0  0  0  0  0  0  0  0  0  0  0
    0.0000   -4.1250    0.0000 F   0  0  0  0  0  0  0  0  0  0  0  0
    0.8250   -3.3000    0.0000 C   0  0  0  0  0  0  0  0  0  0  0  0
    1.6500   -3.3000    0.0000 F   0  0  0  0  0  0  0  0  0  0  0  0
    0.0000   -3.3000    0.0000 F   0  0  0  0  0  0  0  0  0  0  0  0
    0.8250   -2.4750    0.0000 C   0  0  0  0  0  0  0  0  0  0  0  0
    1.6500   -2.4750    0.0000 F   0  0  0  0  0  0  0  0  0  0  0  0
    0.0000   -2.4750    0.0000 F   0  0  0  0  0  0  0  0  0  0  0  0
    0.8250   -1.6500    0.0000 C   0  0  0  0  0  0  0  0  0  0  0  0
    1.6500   -1.6500    0.0000 F   0  0  0  0  0  0  0  0  0  0  0  0
    0.0000   -1.6500    0.0000 F   0  0  0  0  0  0  0  0  0  0  0  0
    0.8250   -0.8250    0.0000 C   0  0  0  0  0  0  0  0  0  0  0  0
    1.6500   -0.8250    0.0000 F   0  0  0  0  0  0  0  0  0  0  0  0
    0.0000   -0.8250    0.0000 F   0  0  0  0  0  0  0  0  0  0  0  0
    0.8250    0.0000    0.0000 C   0  0  0  0  0  0  0  0  0  0  0  0
    0.8250    0.8250    0.0000 F   0  0  0  0  0  0  0  0  0  0  0  0
    1.6500   -0.0000    0.0000 F   0  0  0  0  0  0  0  0  0  0  0  0
    0.0000    0.0000    0.0000 F   0  0  0  0  0  0  0  0  0  0  0  0
  1  2  1  0  0  0  0
  2  3  1  0  0  0  0
  3  4  1  0  0  0  0
  4  5  1  0  0  0  0
  4  6  1  0  0  0  0
  4  7  1  0  0  0  0
  7  8  1  0  0  0  0
  7  9  1  0  0  0  0
  7 10  1  0  0  0  0
 10 11  1  0  0  0  0
 10 12  1  0  0  0  0
 10 13  1  0  0  0  0
 13 14  1  0  0  0  0
 13 15  1  0  0  0  0
 13 16  1  0  0  0  0
 16 17  1  0  0  0  0
 16 18  1  0  0  0  0
 16 19  1  0  0  0  0
 19 20  1  0  0  0  0
 19 21  1  0  0  0  0
 19 22  1  0  0  0  0
M  END
> <activity>
56.8

> <InChiKey>
GRJRKPMIRMSBNK-UHFFFAOYSA-N

$$$$

  Mrv2220 08292413132D          

 27 26  0  0  0  0            999 V2000
   -1.3184   -7.8375    0.0000 C   0  0  0  0  0  0  0  0  0  0  0  0
   -0.6039   -7.4250    0.0000 C   0  0  0  0  0  0  0  0  0  0  0  0
    0.1105   -7.8375    0.0000 C   0  0  0  0  0  0  0  0  0  0  0  0
   -0.6039   -6.6000    0.0000 C   0  0  0  0  0  0  0  0  0  0  0  0
   -1.3184   -6.1875    0.0000 O   0  0  0  0  0  0  0  0  0  0  0  0
    0.1105   -6.1875    0.0000 O   0  0  0  0  0  0  0  0  0  0  0  0
    0.1105   -5.3625    0.0000 C   0  0  0  0  0  0  0  0  0  0  0  0
    0.8250   -4.9500    0.0000 C   0  0  0  0  0  0  0  0  0  0  0  0
    0.8250   -4.1250    0.0000 C   0  0  0  0  0  0  0  0  0  0  0  0
    1.6500   -4.1250    0.0000 F   0  0  0  0  0  0  0  0  0  0  0  0
    0.0000   -4.1250    0.0000 F   0  0  0  0  0  0  0  0  0  0  0  0
    0.8250   -3.3000    0.0000 C   0  0  0  0  0  0  0  0  0  0  0  0
    1.6500   -3.3000    0.0000 F   0  0  0  0  0  0  0  0  0  0  0  0
    0.0000   -3.3000    0.0000 F   0  0  0  0  0  0  0  0  0  0  0  0
    0.8250   -2.4750    0.0000 C   0  0  0  0  0  0  0  0  0  0  0  0
    1.6500   -2.4750    0.0000 F   0  0  0  0  0  0  0  0  0  0  0  0
    0.0000   -2.4750    0.0000 F   0  0  0  0  0  0  0  0  0  0  0  0
    0.8250   -1.6500    0.0000 C   0  0  0  0  0  0  0  0  0  0  0  0
    1.6500   -1.6500    0.0000 F   0  0  0  0  0  0  0  0  0  0  0  0
    0.0000   -1.6500    0.0000 F   0  0  0  0  0  0  0  0  0  0  0  0
    0.8250   -0.8250    0.0000 C   0  0  0  0  0  0  0  0  0  0  0  0
    1.6500   -0.8250    0.0000 F   0  0  0  0  0  0  0  0  0  0  0  0
    0.0000   -0.8250    0.0000 F   0  0  0  0  0  0  0  0  0  0  0  0
    0.8250    0.0000    0.0000 C   0  0  0  0  0  0  0  0  0  0  0  0
    0.8250    0.8250    0.0000 F   0  0  0  0  0  0  0  0  0  0  0  0
    1.6500   -0.0000    0.0000 F   0  0  0  0  0  0  0  0  0  0  0  0
    0.0000    0.0000    0.0000 F   0  0  0  0  0  0  0  0  0  0  0  0
  1  2  2  0  0  0  0
  2  3  1  0  0  0  0
  2  4  1  0  0  0  0
  4  5  2  0  0  0  0
  4  6  1  0  0  0  0
  6  7  1  0  0  0  0
  7  8  1  0  0  0  0
  8  9  1  0  0  0  0
  9 10  1  0  0  0  0
  9 11  1  0  0  0  0
  9 12  1  0  0  0  0
 12 13  1  0  0  0  0
 12 14  1  0  0  0  0
 12 15  1  0  0  0  0
 15 16  1  0  0  0  0
 15 17  1  0  0  0  0
 15 18  1  0  0  0  0
 18 19  1  0  0  0  0
 18 20  1  0  0  0  0
 18 21  1  0  0  0  0
 21 22  1  0  0  0  0
 21 23  1  0  0  0  0
 21 24  1  0  0  0  0
 24 25  1  0  0  0  0
 24 26  1  0  0  0  0
 24 27  1  0  0  0  0
M  END
> <activity>
9.4

> <InChiKey>
CDXFIRXEAJABAZ-UHFFFAOYSA-N

$$$$

  Mrv2220 08292413132D          

 12 11  0  0  0  0            999 V2000
    3.5211    2.8579    0.0000 C   0  0  0  0  0  0  0  0  0  0  0  0
    4.2355    3.2704    0.0000 C   0  0  0  0  0  0  0  0  0  0  0  0
    4.9500    2.8579    0.0000 O   0  0  0  0  0  0  0  0  0  0  0  0
    5.6645    3.2704    0.0000 C   0  0  0  0  0  0  0  0  0  0  0  0
    6.3789    2.8579    0.0000 C   0  0  0  0  0  0  0  0  0  0  0  0
    7.0934    3.2704    0.0000 O   0  0  0  0  0  0  0  0  0  0  0  0
    7.8079    2.8579    0.0000 C   0  0  0  0  0  0  0  0  0  0  0  0
    8.5224    3.2704    0.0000 C   0  0  0  0  0  0  0  0  0  0  0  0
    9.2368    2.8579    0.0000 O   0  0  0  0  0  0  0  0  0  0  0  0
    9.9513    3.2704    0.0000 C   0  0  0  0  0  0  0  0  0  0  0  0
   10.6658    2.8579    0.0000 C   0  0  0  0  0  0  0  0  0  0  0  0
   11.3802    3.2704    0.0000 O   0  0  0  0  0  0  0  0  0  0  0  0
  1  2  1  0  0  0  0
  2  3  1  0  0  0  0
  3  4  1  0  0  0  0
  4  5  1  0  0  0  0
  5  6  1  0  0  0  0
  6  7  1  0  0  0  0
  7  8  1  0  0  0  0
  8  9  1  0  0  0  0
  9 10  1  0  0  0  0
 10 11  1  0  0  0  0
 11 12  1  0  0  0  0
M  END
> <activity>
6.6

> <InChiKey>
WFSMVVDJSNMRAR-UHFFFAOYSA-N

$$$$

  Mrv2220 08292413132D          

 11 10  0  0  0  0            999 V2000
    4.2355    3.2704    0.0000 C   0  0  0  0  0  0  0  0  0  0  0  0
    4.9500    2.8579    0.0000 O   0  0  0  0  0  0  0  0  0  0  0  0
    5.6645    3.2704    0.0000 C   0  0  0  0  0  0  0  0  0  0  0  0
    6.3789    2.8579    0.0000 C   0  0  0  0  0  0  0  0  0  0  0  0
    7.0934    3.2704    0.0000 O   0  0  0  0  0  0  0  0  0  0  0  0
    7.8079    2.8579    0.0000 C   0  0  0  0  0  0  0  0  0  0  0  0
    8.5224    3.2704    0.0000 C   0  0  0  0  0  0  0  0  0  0  0  0
    9.2368    2.8579    0.0000 O   0  0  0  0  0  0  0  0  0  0  0  0
    9.9513    3.2704    0.0000 C   0  0  0  0  0  0  0  0  0  0  0  0
   10.6658    2.8579    0.0000 C   0  0  0  0  0  0  0  0  0  0  0  0
   11.3802    3.2704    0.0000 O   0  0  0  0  0  0  0  0  0  0  0  0
  1  2  1  0  0  0  0
  2  3  1  0  0  0  0
  3  4  1  0  0  0  0
  4  5  1  0  0  0  0
  5  6  1  0  0  0  0
  6  7  1  0  0  0  0
  7  8  1  0  0  0  0
  8  9  1  0  0  0  0
  9 10  1  0  0  0  0
 10 11  1  0  0  0  0
M  END
> <activity>
6.1

> <InChiKey>
JLGLQAWTXXGVEM-UHFFFAOYSA-N

$$$$

  Mrv2220 08292413132D          

 11 11  0  0  0  0            999 V2000
    1.4289    2.4750    0.0000 O   0  0  0  0  0  0  0  0  0  0  0  0
    0.7145    2.0625    0.0000 C   0  0  0  0  0  0  0  0  0  0  0  0
    0.0000    2.4750    0.0000 C   0  0  0  0  0  0  0  0  0  0  0  0
    0.0000    3.3000    0.0000 Br  0  0  0  0  0  0  0  0  0  0  0  0
    0.7145    1.2375    0.0000 C   0  0  0  0  0  0  0  0  0  0  0  0
    1.4289    0.8250    0.0000 C   0  0  0  0  0  0  0  0  0  0  0  0
    1.4289   -0.0000    0.0000 C   0  0  0  0  0  0  0  0  0  0  0  0
    0.7145   -0.4125    0.0000 C   0  0  0  0  0  0  0  0  0  0  0  0
    0.7145   -1.2375    0.0000 O   0  0  0  0  0  0  0  0  0  0  0  0
    0.0000    0.0000    0.0000 C   0  0  0  0  0  0  0  0  0  0  0  0
    0.0000    0.8250    0.0000 C   0  0  0  0  0  0  0  0  0  0  0  0
  1  2  2  0  0  0  0
  2  3  1  0  0  0  0
  3  4  1  0  0  0  0
  2  5  1  0  0  0  0
  5  6  4  0  0  0  0
  6  7  4  0  0  0  0
  7  8  4  0  0  0  0
  8  9  1  0  0  0  0
  8 10  4  0  0  0  0
 10 11  4  0  0  0  0
  5 11  4  0  0  0  0
M  END
> <activity>
104.3

> <InChiKey>
LJYOFQHKEWTQRH-UHFFFAOYSA-N

$$$$

  Mrv2220 08292413132D          

  6  5  0  0  0  0            999 V2000
    2.0625    0.7145    0.0000 C   0  0  0  0  0  0  0  0  0  0  0  0
    1.2375    0.7145    0.0000 C   0  0  0  0  0  0  0  0  0  0  0  0
    0.8250    0.0000    0.0000 C   0  0  0  0  0  0  0  0  0  0  0  0
    1.2375   -0.7145    0.0000 C   0  0  0  0  0  0  0  0  0  0  0  0
    0.0000    0.0000    0.0000 N   0  0  0  0  0  0  0  0  0  0  0  0
   -0.4125   -0.7145    0.0000 O   0  0  0  0  0  0  0  0  0  0  0  0
  1  2  1  0  0  0  0
  2  3  1  0  0  0  0
  3  4  1  0  0  0  0
  3  5  2  0  0  0  0
  5  6  1  4  0  0  0
M  END
> <activity>
-0.8

> <InChiKey>
WHIVNJATOVLWBW-UHFFFAOYSA-N

$$$$

  Mrv2220 08292413132D          

 11 10  0  0  0  0            999 V2000
    2.2836    2.1434    0.0000 C   0  0  0  0  0  0  0  0  0  0  0  0
    2.9980    2.5559    0.0000 C   0  0  0  0  0  0  0  0  0  0  0  0
    3.7125    2.1434    0.0000 C   0  0  0  0  0  0  0  0  0  0  0  0
    4.4270    2.5559    0.0000 C   0  0  0  0  0  0  0  0  0  0  0  0
    5.1414    2.1434    0.0000 O   0  0  0  0  0  0  0  0  0  0  0  0
    5.8559    2.5559    0.0000 C   0  0  0  0  0  0  0  0  0  0  0  0
    6.5704    2.1434    0.0000 C   0  0  0  0  0  0  0  0  0  0  0  0
    7.2849    2.5559    0.0000 O   0  0  0  0  0  0  0  0  0  0  0  0
    7.9993    2.1434    0.0000 C   0  0  0  0  0  0  0  0  0  0  0  0
    8.7138    2.5559    0.0000 C   0  0  0  0  0  0  0  0  0  0  0  0
    7.9993    1.3184    0.0000 O   0  0  0  0  0  0  0  0  0  0  0  0
  1  2  1  0  0  0  0
  2  3  1  0  0  0  0
  3  4  1  0  0  0  0
  4  5  1  0  0  0  0
  5  6  1  0  0  0  0
  6  7  1  0  0  0  0
  7  8  1  0  0  0  0
  8  9  1  0  0  0  0
  9 10  1  0  0  0  0
  9 11  2  0  0  0  0
M  END
> <activity>
8.3

> <InChiKey>
NQBXSWAWVZHKBZ-UHFFFAOYSA-N

$$$$

  Mrv2220 08292413132D          

  6  5  0  0  0  0            999 V2000
    2.0625    0.7145    0.0000 O   0  0  0  0  0  0  0  0  0  0  0  0
    1.6500   -0.0000    0.0000 C   0  0  0  0  0  0  0  0  0  0  0  0
    0.8250    0.0000    0.0000 C   0  0  0  0  0  0  0  0  0  0  0  0
    0.0000    0.0000    0.0000 C   0  0  0  0  0  0  0  0  0  0  0  0
   -0.8250   -0.0000    0.0000 C   0  0  0  0  0  0  0  0  0  0  0  0
   -1.2375   -0.7145    0.0000 O   0  0  0  0  0  0  0  0  0  0  0  0
  1  2  1  0  0  0  0
  2  3  1  0  0  0  0
  3  4  3  0  0  0  0
  4  5  1  0  0  0  0
  5  6  1  0  0  0  0
M  END
> <activity>
11.1

> <InChiKey>
DLDJFQGPPSQZKI-UHFFFAOYSA-N

$$$$

  Mrv2220 08292413132D          

 14 15  0  0  0  0            999 V2000
    0.7145   -0.4125    0.0000 O   0  0  0  0  0  0  0  0  0  0  0  0
    0.7145   -1.2375    0.0000 C   0  0  0  0  0  0  0  0  0  0  0  0
    1.4289   -1.6500    0.0000 C   0  0  0  0  0  0  0  0  0  0  0  0
    1.4289   -2.4750    0.0000 C   0  0  0  0  0  0  0  0  0  0  0  0
    0.7145   -2.8875    0.0000 C   0  0  0  0  0  0  0  0  0  0  0  0
    0.7145   -3.7125    0.0000 C   0  0  0  0  0  0  0  0  0  0  0  0
    1.4289   -4.1250    0.0000 C   0  0  0  0  0  0  0  0  0  0  0  0
    1.4289   -4.9500    0.0000 C   0  0  0  0  0  0  0  0  0  0  0  0
    0.7145   -5.3625    0.0000 C   0  0  0  0  0  0  0  0  0  0  0  0
    0.0000   -4.9500    0.0000 C   0  0  0  0  0  0  0  0  0  0  0  0
    0.0000   -4.1250    0.0000 C   0  0  0  0  0  0  0  0  0  0  0  0
    0.0000   -2.4750    0.0000 C   0  0  0  0  0  0  0  0  0  0  0  0
   -0.7145   -2.8875    0.0000 Cl  0  0  0  0  0  0  0  0  0  0  0  0
    0.0000   -1.6500    0.0000 C   0  0  0  0  0  0  0  0  0  0  0  0
  1  2  1  0  0  0  0
  2  3  4  0  0  0  0
  3  4  4  0  0  0  0
  4  5  4  0  0  0  0
  5  6  1  0  0  0  0
  6  7  4  0  0  0  0
  7  8  4  0  0  0  0
  8  9  4  0  0  0  0
  9 10  4  0  0  0  0
 10 11  4  0  0  0  0
  6 11  4  0  0  0  0
  5 12  4  0  0  0  0
 12 13  1  0  0  0  0
 12 14  4  0  0  0  0
  2 14  4  0  0  0  0
M  END
> <activity>
105.7

> <InChiKey>
MXORDJXBRHNWBE-UHFFFAOYSA-N

$$$$

  Mrv2220 08292413132D          

  4  3  0  0  0  0            999 V2000
    2.0625   -0.7145    0.0000 O   0  0  0  0  0  0  0  0  0  0  0  0
    1.2375   -0.7145    0.0000 C   0  0  0  0  0  0  0  0  0  0  0  0
    0.8250    0.0000    0.0000 C   0  0  0  0  0  0  0  0  0  0  0  0
    0.0000    0.0000    0.0000 Cl  0  0  0  0  0  0  0  0  0  0  0  0
  1  2  2  0  0  0  0
  2  3  1  0  0  0  0
  3  4  1  0  0  0  0
M  END
> <activity>
8.7

> <InChiKey>
QSKPIOLLBIHNAC-UHFFFAOYSA-N

$$$$

  Mrv2220 08292413132D          

 10 10  0  0  0  0            999 V2000
    1.4289    2.4750    0.0000 O   0  0  0  0  0  0  0  0  0  0  0  0
    0.7145    2.0625    0.0000 C   0  0  0  0  0  0  0  0  0  0  0  0
    0.0000    2.4750    0.0000 C   0  0  0  0  0  0  0  0  0  0  0  0
    0.0000    3.3000    0.0000 Cl  0  0  0  0  0  0  0  0  0  0  0  0
    0.7145    1.2375    0.0000 C   0  0  0  0  0  0  0  0  0  0  0  0
    1.4289    0.8250    0.0000 C   0  0  0  0  0  0  0  0  0  0  0  0
    1.4289   -0.0000    0.0000 C   0  0  0  0  0  0  0  0  0  0  0  0
    0.7145   -0.4125    0.0000 C   0  0  0  0  0  0  0  0  0  0  0  0
    0.0000    0.0000    0.0000 C   0  0  0  0  0  0  0  0  0  0  0  0
    0.0000    0.8250    0.0000 C   0  0  0  0  0  0  0  0  0  0  0  0
  1  2  2  0  0  0  0
  2  3  1  0  0  0  0
  3  4  1  0  0  0  0
  2  5  1  0  0  0  0
  5  6  4  0  0  0  0
  6  7  4  0  0  0  0
  7  8  4  0  0  0  0
  8  9  4  0  0  0  0
  9 10  4  0  0  0  0
  5 10  4  0  0  0  0
M  END
> <activity>
26.0

> <InChiKey>
IMACFCSSMIZSPP-UHFFFAOYSA-N

$$$$

  Mrv2220 08292413132D          

  4  3  0  0  0  0            999 V2000
    2.0625   -0.7145    0.0000 O   0  0  0  0  0  0  0  0  0  0  0  0
    1.2375   -0.7145    0.0000 C   0  0  0  0  0  0  0  0  0  0  0  0
    0.8250    0.0000    0.0000 C   0  0  0  0  0  0  0  0  0  0  0  0
    0.0000    0.0000    0.0000 Cl  0  0  0  0  0  0  0  0  0  0  0  0
  1  2  1  0  0  0  0
  2  3  1  0  0  0  0
  3  4  1  0  0  0  0
M  END
> <activity>
10.2

> <InChiKey>
SZIFAVKTNFCBPC-UHFFFAOYSA-N

$$$$

  Mrv2220 08292413132D          

  9  8  0  0  0  0            999 V2000
    0.8250   -1.4289    0.0000 C   0  0  0  0  0  0  0  0  0  0  0  0
    1.2375   -2.1434    0.0000 C   0  0  0  0  0  0  0  0  0  0  0  0
    2.0625   -2.1434    0.0000 C   0  0  0  0  0  0  0  0  0  0  0  0
    2.4750   -2.8579    0.0000 C   0  0  0  0  0  0  0  0  0  0  0  0
    3.3000   -2.8579    0.0000 C   0  0  0  0  0  0  0  0  0  0  0  0
    3.7125   -3.5724    0.0000 C   0  0  0  0  0  0  0  0  0  0  0  0
    4.5375   -3.5724    0.0000 C   0  0  0  0  0  0  0  0  0  0  0  0
    3.7125   -2.1434    0.0000 C   0  0  0  0  0  0  0  0  0  0  0  0
    4.5375   -2.1434    0.0000 O   0  0  0  0  0  0  0  0  0  0  0  0
  1  2  1  0  0  0  0
  2  3  1  0  0  0  0
  3  4  1  0  0  0  0
  4  5  1  0  0  0  0
  5  6  1  0  0  0  0
  6  7  1  0  0  0  0
  5  8  1  0  0  0  0
  8  9  1  0  0  0  0
M  END
> <activity>
8.6

> <InChiKey>
YIWUKEYIRIRTPP-UHFFFAOYSA-N

$$$$

  Mrv2220 08292413132D          

 10  9  0  0  0  0            999 V2000
    0.8250   -1.4289    0.0000 C   0  0  0  0  0  0  0  0  0  0  0  0
    1.2375   -2.1434    0.0000 C   0  0  0  0  0  0  0  0  0  0  0  0
    2.0625   -2.1434    0.0000 C   0  0  0  0  0  0  0  0  0  0  0  0
    2.4750   -2.8579    0.0000 C   0  0  0  0  0  0  0  0  0  0  0  0
    2.0625   -3.5724    0.0000 O   0  0  0  0  0  0  0  0  0  0  0  0
    3.3000   -2.8579    0.0000 C   0  0  0  0  0  0  0  0  0  0  0  0
    3.7125   -3.5724    0.0000 C   0  0  0  0  0  0  0  0  0  0  0  0
    4.5375   -3.5724    0.0000 C   0  0  0  0  0  0  0  0  0  0  0  0
    3.7125   -2.1434    0.0000 C   0  0  0  0  0  0  0  0  0  0  0  0
    4.5375   -2.1434    0.0000 O   0  0  0  0  0  0  0  0  0  0  0  0
  1  2  1  0  0  0  0
  2  3  1  0  0  0  0
  3  4  1  0  0  0  0
  4  5  1  0  0  0  0
  4  6  1  0  0  0  0
  6  7  1  0  0  0  0
  7  8  1  0  0  0  0
  6  9  1  0  0  0  0
  9 10  1  0  0  0  0
M  END
> <activity>
5.3

> <InChiKey>
RWLALWYNXFYRGW-UHFFFAOYSA-N

$$$$

  Mrv2220 08292413132D          

  9  8  0  0  0  0            999 V2000
    2.4750    1.4289    0.0000 C   0  0  0  0  0  0  0  0  0  0  0  0
    2.0625    0.7145    0.0000 C   0  0  0  0  0  0  0  0  0  0  0  0
    1.2375    0.7145    0.0000 C   0  0  0  0  0  0  0  0  0  0  0  0
    0.8250    0.0000    0.0000 C   0  0  0  0  0  0  0  0  0  0  0  0
    0.0000    0.0000    0.0000 C   0  0  0  0  0  0  0  0  0  0  0  0
   -0.4125   -0.7145    0.0000 C   0  0  0  0  0  0  0  0  0  0  0  0
    0.0000   -1.4289    0.0000 O   0  0  0  0  0  0  0  0  0  0  0  0
   -0.4125    0.7145    0.0000 C   0  0  0  0  0  0  0  0  0  0  0  0
   -1.2375    0.7145    0.0000 C   0  0  0  0  0  0  0  0  0  0  0  0
  1  2  1  0  0  0  0
  2  3  1  0  0  0  0
  4  3  1  4  0  0  0
  4  5  2  0  0  0  0
  5  6  1  0  0  0  0
  6  7  2  0  0  0  0
  5  8  1  0  0  0  0
  8  9  1  0  0  0  0
M  END
> <activity>
23.2

> <InChiKey>
PYLMCYQHBRSDND-UHFFFAOYSA-N

$$$$

  Mrv2220 08292413132D          

 10 10  0  0  0  0            999 V2000
    0.0000    2.4750    0.0000 C   0  0  0  0  0  0  0  0  0  0  0  0
    0.7145    2.0625    0.0000 C   0  0  0  0  0  0  0  0  0  0  0  0
    0.7145    1.2375    0.0000 C   0  0  0  0  0  0  0  0  0  0  0  0
    1.4289    0.8250    0.0000 C   0  0  0  0  0  0  0  0  0  0  0  0
    1.4289   -0.0000    0.0000 C   0  0  0  0  0  0  0  0  0  0  0  0
    0.7145   -0.4125    0.0000 C   0  0  0  0  0  0  0  0  0  0  0  0
    0.0000    0.0000    0.0000 C   0  0  0  0  0  0  0  0  0  0  0  0
   -0.7145   -0.4125    0.0000 C   0  0  0  0  0  0  0  0  0  0  0  0
    0.0000    0.8250    0.0000 C   0  0  0  0  0  0  0  0  0  0  0  0
   -0.7145    1.2375    0.0000 N   0  0  0  0  0  0  0  0  0  0  0  0
  1  2  1  0  0  0  0
  2  3  1  0  0  0  0
  3  4  4  0  0  0  0
  4  5  4  0  0  0  0
  5  6  4  0  0  0  0
  6  7  4  0  0  0  0
  7  8  1  0  0  0  0
  7  9  4  0  0  0  0
  3  9  4  0  0  0  0
  9 10  1  0  0  0  0
M  END
> <activity>
30.3

> <InChiKey>
JJVKJJNCIILLRP-UHFFFAOYSA-N

$$$$

  Mrv2220 08292413132D          

 12 11  0  0  0  0            999 V2000
    2.9980    2.5559    0.0000 C   0  0  0  0  0  0  0  0  0  0  0  0
    3.7125    2.1434    0.0000 C   0  0  0  0  0  0  0  0  0  0  0  0
    4.4270    2.5559    0.0000 C   0  0  0  0  0  0  0  0  0  0  0  0
    5.1414    2.1434    0.0000 C   0  0  0  0  0  0  0  0  0  0  0  0
    5.8559    2.5559    0.0000 C   0  0  0  0  0  0  0  0  0  0  0  0
    5.8559    3.3809    0.0000 C   0  0  0  0  0  0  0  0  0  0  0  0
    6.5704    3.7934    0.0000 C   0  0  0  0  0  0  0  0  0  0  0  0
    6.5704    2.1434    0.0000 C   0  0  0  0  0  0  0  0  0  0  0  0
    7.2849    2.5559    0.0000 O   0  0  0  0  0  0  0  0  0  0  0  0
    7.9993    2.1434    0.0000 C   0  0  0  0  0  0  0  0  0  0  0  0
    8.7138    2.5559    0.0000 C   0  0  0  0  0  0  0  0  0  0  0  0
    7.9993    1.3184    0.0000 O   0  0  0  0  0  0  0  0  0  0  0  0
  1  2  1  0  0  0  0
  2  3  1  0  0  0  0
  3  4  1  0  0  0  0
  4  5  1  0  0  0  0
  5  6  1  0  0  0  0
  6  7  1  0  0  0  0
  5  8  1  0  0  0  0
  8  9  1  0  0  0  0
  9 10  1  0  0  0  0
 10 11  1  0  0  0  0
 10 12  2  0  0  0  0
M  END
> <activity>
10.1

> <InChiKey>
WOYWLLHHWAMFCB-UHFFFAOYSA-N

$$$$

  Mrv2220 08292413132D          

 25 26  0  0  0  0            999 V2000
   -2.6961   -4.5079    0.0000 C   0  0  0  0  0  0  0  0  0  0  0  0
   -2.2836   -3.7934    0.0000 C   0  0  0  0  0  0  0  0  0  0  0  0
   -1.4586   -3.7934    0.0000 C   0  0  0  0  0  0  0  0  0  0  0  0
   -1.0461   -3.0789    0.0000 C   0  0  0  0  0  0  0  0  0  0  0  0
   -0.2211   -3.0789    0.0000 C   0  0  0  0  0  0  0  0  0  0  0  0
    0.1914   -3.7934    0.0000 C   0  0  0  0  0  0  0  0  0  0  0  0
   -0.2211   -4.5079    0.0000 C   0  0  0  0  0  0  0  0  0  0  0  0
    0.1914   -2.3645    0.0000 C   0  0  0  0  0  0  0  0  0  0  0  0
    1.0164   -2.3645    0.0000 O   0  0  0  0  0  0  0  0  0  0  0  0
    1.4289   -1.6500    0.0000 P   0  0  0  0  0  0  0  0  0  0  0  0
    2.1434   -2.0625    0.0000 O   0  0  0  0  0  0  0  0  0  0  0  0
    1.8414   -0.9355    0.0000 O   0  0  0  0  0  0  0  0  0  0  0  0
    2.6664   -0.9355    0.0000 C   0  0  0  0  0  0  0  0  0  0  0  0
    3.0789   -0.2211    0.0000 C   0  0  0  0  0  0  0  0  0  0  0  0
    3.9039   -0.2211    0.0000 C   0  0  0  0  0  0  0  0  0  0  0  0
    4.3164   -0.9355    0.0000 C   0  0  0  0  0  0  0  0  0  0  0  0
    3.9039   -1.6500    0.0000 C   0  0  0  0  0  0  0  0  0  0  0  0
    3.0789   -1.6500    0.0000 C   0  0  0  0  0  0  0  0  0  0  0  0
    0.7145   -1.2375    0.0000 O   0  0  0  0  0  0  0  0  0  0  0  0
    0.7145   -0.4125    0.0000 C   0  0  0  0  0  0  0  0  0  0  0  0
    0.0000   -0.0000    0.0000 C   0  0  0  0  0  0  0  0  0  0  0  0
    0.0000    0.8250    0.0000 C   0  0  0  0  0  0  0  0  0  0  0  0
    0.7145    1.2375    0.0000 C   0  0  0  0  0  0  0  0  0  0  0  0
    1.4289    0.8250    0.0000 C   0  0  0  0  0  0  0  0  0  0  0  0
    1.4289   -0.0000    0.0000 C   0  0  0  0  0  0  0  0  0  0  0  0
  1  2  1  0  0  0  0
  2  3  1  0  0  0  0
  3  4  1  0  0  0  0
  4  5  1  0  0  0  0
  5  6  1  0  0  0  0
  6  7  1  0  0  0  0
  5  8  1  0  0  0  0
  8  9  1  0  0  0  0
  9 10  1  0  0  0  0
 10 11  2  0  0  0  0
 10 12  1  0  0  0  0
 12 13  1  0  0  0  0
 13 14  4  0  0  0  0
 14 15  4  0  0  0  0
 15 16  4  0  0  0  0
 16 17  4  0  0  0  0
 17 18  4  0  0  0  0
 13 18  4  0  0  0  0
 10 19  1  0  0  0  0
 19 20  1  0  0  0  0
 20 21  4  0  0  0  0
 21 22  4  0  0  0  0
 22 23  4  0  0  0  0
 23 24  4  0  0  0  0
 24 25  4  0  0  0  0
 20 25  4  0  0  0  0
M  END
> <activity>
53.1

> <InChiKey>
CGSLYBDCEGBZCG-UHFFFAOYSA-N

$$$$

  Mrv2220 08292413132D          

 13 12  0  0  0  0            999 V2000
    2.2836    2.1434    0.0000 C   0  0  0  0  0  0  0  0  0  0  0  0
    2.9980    2.5559    0.0000 C   0  0  0  0  0  0  0  0  0  0  0  0
    3.7125    2.1434    0.0000 C   0  0  0  0  0  0  0  0  0  0  0  0
    4.4270    2.5559    0.0000 C   0  0  0  0  0  0  0  0  0  0  0  0
    5.1414    2.1434    0.0000 C   0  0  0  0  0  0  0  0  0  0  0  0
    5.1414    1.3184    0.0000 C   0  0  0  0  0  0  0  0  0  0  0  0
    5.8559    0.9059    0.0000 C   0  0  0  0  0  0  0  0  0  0  0  0
    5.8559    2.5559    0.0000 C   0  0  0  0  0  0  0  0  0  0  0  0
    6.5704    2.1434    0.0000 O   0  0  0  0  0  0  0  0  0  0  0  0
    7.2849    2.5559    0.0000 C   0  0  0  0  0  0  0  0  0  0  0  0
    7.2849    3.3809    0.0000 O   0  0  0  0  0  0  0  0  0  0  0  0
    7.9993    2.1434    0.0000 C   0  0  0  0  0  0  0  0  0  0  0  0
    8.7138    2.5559    0.0000 S   0  0  0  0  0  0  0  0  0  0  0  0
  1  2  1  0  0  0  0
  2  3  1  0  0  0  0
  3  4  1  0  0  0  0
  4  5  1  0  0  0  0
  5  6  1  0  0  0  0
  6  7  1  0  0  0  0
  5  8  1  0  0  0  0
  8  9  1  0  0  0  0
  9 10  1  0  0  0  0
 10 11  2  0  0  0  0
 10 12  1  0  0  0  0
 12 13  1  0  0  0  0
M  END
> <activity>
58.7

> <InChiKey>
OWHSTLLOZWTNTQ-UHFFFAOYSA-N

$$$$

  Mrv2220 08292413132D          

  9  9  0  0  0  0            999 V2000
    0.0000    2.4750    0.0000 C   0  0  0  0  0  0  0  0  0  0  0  0
    0.7145    2.0625    0.0000 C   0  0  0  0  0  0  0  0  0  0  0  0
    0.7145    1.2375    0.0000 C   0  0  0  0  0  0  0  0  0  0  0  0
    1.4289    0.8250    0.0000 C   0  0  0  0  0  0  0  0  0  0  0  0
    1.4289   -0.0000    0.0000 C   0  0  0  0  0  0  0  0  0  0  0  0
    0.7145   -0.4125    0.0000 C   0  0  0  0  0  0  0  0  0  0  0  0
    0.0000    0.0000    0.0000 C   0  0  0  0  0  0  0  0  0  0  0  0
    0.0000    0.8250    0.0000 C   0  0  0  0  0  0  0  0  0  0  0  0
   -0.7145    1.2375    0.0000 O   0  0  0  0  0  0  0  0  0  0  0  0
  1  2  1  0  0  0  0
  2  3  1  0  0  0  0
  3  4  4  0  0  0  0
  4  5  4  0  0  0  0
  5  6  4  0  0  0  0
  6  7  4  0  0  0  0
  7  8  4  0  0  0  0
  3  8  4  0  0  0  0
  8  9  1  0  0  0  0
M  END
> <activity>
68.1

> <InChiKey>
IXQGCWUGDFDQMF-UHFFFAOYSA-N

$$$$

  Mrv2220 08292413132D          

  8  7  0  0  0  0            999 V2000
    1.7605    1.8414    0.0000 C   0  0  0  0  0  0  0  0  0  0  0  0
    2.4750    1.4289    0.0000 C   0  0  0  0  0  0  0  0  0  0  0  0
    3.1895    1.8414    0.0000 C   0  0  0  0  0  0  0  0  0  0  0  0
    3.9039    1.4289    0.0000 C   0  0  0  0  0  0  0  0  0  0  0  0
    4.6184    1.8414    0.0000 C   0  0  0  0  0  0  0  0  0  0  0  0
    5.3329    1.4289    0.0000 C   0  0  0  0  0  0  0  0  0  0  0  0
    6.0474    1.8414    0.0000 C   0  0  0  0  0  0  0  0  0  0  0  0
    5.3329    0.6039    0.0000 O   0  0  0  0  0  0  0  0  0  0  0  0
  1  2  1  0  0  0  0
  2  3  1  0  0  0  0
  3  4  1  0  0  0  0
  4  5  1  0  0  0  0
  5  6  1  0  0  0  0
  6  7  1  0  0  0  0
  6  8  2  0  0  0  0
M  END
> <activity>
13.4

> <InChiKey>
CATSNJVOTSVZJV-UHFFFAOYSA-N

$$$$

  Mrv2220 08292413132D          

 17 18  0  0  0  0            999 V2000
    1.4289    0.0000    0.0000 C   0  0  0  0  0  0  0  0  0  0  0  0
    2.1434   -0.4125    0.0000 O   0  0  0  0  0  0  0  0  0  0  0  0
    2.1434   -1.2375    0.0000 C   0  0  0  0  0  0  0  0  0  0  0  0
    2.8579   -1.6500    0.0000 C   0  0  0  0  0  0  0  0  0  0  0  0
    2.8579   -2.4750    0.0000 C   0  0  0  0  0  0  0  0  0  0  0  0
    2.1434   -2.8875    0.0000 C   0  0  0  0  0  0  0  0  0  0  0  0
    2.1434   -3.7125    0.0000 C   0  0  0  0  0  0  0  0  0  0  0  0
    2.8579   -4.1250    0.0000 O   0  0  0  0  0  0  0  0  0  0  0  0
    1.4289   -4.1250    0.0000 C   0  0  0  0  0  0  0  0  0  0  0  0
    1.4289   -4.9500    0.0000 C   0  0  0  0  0  0  0  0  0  0  0  0
    0.7145   -5.3625    0.0000 C   0  0  0  0  0  0  0  0  0  0  0  0
   -0.0000   -4.9500    0.0000 C   0  0  0  0  0  0  0  0  0  0  0  0
    0.0000   -4.1250    0.0000 C   0  0  0  0  0  0  0  0  0  0  0  0
    0.7145   -3.7125    0.0000 C   0  0  0  0  0  0  0  0  0  0  0  0
    1.4289   -2.4750    0.0000 C   0  0  0  0  0  0  0  0  0  0  0  0
    0.7145   -2.8875    0.0000 O   0  0  0  0  0  0  0  0  0  0  0  0
    1.4289   -1.6500    0.0000 C   0  0  0  0  0  0  0  0  0  0  0  0
  1  2  1  0  0  0  0
  2  3  1  0  0  0  0
  3  4  4  0  0  0  0
  4  5  4  0  0  0  0
  5  6  4  0  0  0  0
  6  7  1  0  0  0  0
  7  8  2  0  0  0  0
  7  9  1  0  0  0  0
  9 10  4  0  0  0  0
 10 11  4  0  0  0  0
 11 12  4  0  0  0  0
 12 13  4  0  0  0  0
 13 14  4  0  0  0  0
  9 14  4  0  0  0  0
  6 15  4  0  0  0  0
 15 16  1  0  0  0  0
 15 17  4  0  0  0  0
  3 17  4  0  0  0  0
M  END
> <activity>
98.3

> <InChiKey>
DXGLGDHPHMLXJC-UHFFFAOYSA-N

$$$$

  Mrv2220 08292413132D          

 10 10  0  0  0  0            999 V2000
    0.0000    2.4750    0.0000 C   0  0  0  0  0  0  0  0  0  0  0  0
    0.7145    2.0625    0.0000 C   0  0  0  0  0  0  0  0  0  0  0  0
    1.4289    2.4750    0.0000 O   0  0  0  0  0  0  0  0  0  0  0  0
    0.7145    1.2375    0.0000 C   0  0  0  0  0  0  0  0  0  0  0  0
    1.4289    0.8250    0.0000 C   0  0  0  0  0  0  0  0  0  0  0  0
    1.4289   -0.0000    0.0000 C   0  0  0  0  0  0  0  0  0  0  0  0
    0.7145   -0.4125    0.0000 C   0  0  0  0  0  0  0  0  0  0  0  0
    0.0000    0.0000    0.0000 C   0  0  0  0  0  0  0  0  0  0  0  0
    0.0000    0.8250    0.0000 C   0  0  0  0  0  0  0  0  0  0  0  0
   -0.7145    1.2375    0.0000 O   0  0  0  0  0  0  0  0  0  0  0  0
  1  2  1  0  0  0  0
  2  3  2  0  0  0  0
  2  4  1  0  0  0  0
  4  5  4  0  0  0  0
  5  6  4  0  0  0  0
  6  7  4  0  0  0  0
  7  8  4  0  0  0  0
  8  9  4  0  0  0  0
  4  9  4  0  0  0  0
  9 10  1  0  0  0  0
M  END
> <activity>
19.1

> <InChiKey>
JECYUBVRTQDVAT-UHFFFAOYSA-N

$$$$

  Mrv2220 08292413132D          

  8  7  0  0  0  0            999 V2000
    1.7605    1.8414    0.0000 C   0  0  0  0  0  0  0  0  0  0  0  0
    2.4750    1.4289    0.0000 C   0  0  0  0  0  0  0  0  0  0  0  0
    3.1895    1.8414    0.0000 C   0  0  0  0  0  0  0  0  0  0  0  0
    3.1895    2.6664    0.0000 O   0  0  0  0  0  0  0  0  0  0  0  0
    3.9039    1.4289    0.0000 O   0  0  0  0  0  0  0  0  0  0  0  0
    4.6184    1.8414    0.0000 C   0  0  0  0  0  0  0  0  0  0  0  0
    5.3329    1.4289    0.0000 C   0  0  0  0  0  0  0  0  0  0  0  0
    6.0474    1.8414    0.0000 O   0  0  0  0  0  0  0  0  0  0  0  0
  1  2  2  0  0  0  0
  2  3  1  0  0  0  0
  3  4  2  0  0  0  0
  3  5  1  0  0  0  0
  5  6  1  0  0  0  0
  6  7  1  0  0  0  0
  7  8  1  0  0  0  0
M  END
> <activity>
17.1

> <InChiKey>
OMIGHNLMNHATMP-UHFFFAOYSA-N

$$$$

  Mrv2220 08292413132D          

 12 11  0  0  0  0            999 V2000
    3.5211    2.8579    0.0000 C   0  0  0  0  0  0  0  0  0  0  0  0
    4.2355    3.2704    0.0000 C   0  0  0  0  0  0  0  0  0  0  0  0
    4.9500    2.8579    0.0000 C   0  0  0  0  0  0  0  0  0  0  0  0
    5.6645    3.2704    0.0000 C   0  0  0  0  0  0  0  0  0  0  0  0
    6.3789    2.8579    0.0000 C   0  0  0  0  0  0  0  0  0  0  0  0
    7.0934    3.2704    0.0000 C   0  0  0  0  0  0  0  0  0  0  0  0
    7.8079    2.8579    0.0000 C   0  0  0  0  0  0  0  0  0  0  0  0
    8.5224    3.2704    0.0000 C   0  0  0  0  0  0  0  0  0  0  0  0
    9.2368    2.8579    0.0000 S   0  0  0  0  0  0  0  0  0  0  0  0
    9.9513    3.2704    0.0000 C   0  0  0  0  0  0  0  0  0  0  0  0
   10.6658    2.8579    0.0000 C   0  0  0  0  0  0  0  0  0  0  0  0
   11.3802    3.2704    0.0000 O   0  0  0  0  0  0  0  0  0  0  0  0
  1  2  1  0  0  0  0
  2  3  1  0  0  0  0
  3  4  1  0  0  0  0
  4  5  1  0  0  0  0
  5  6  1  0  0  0  0
  6  7  1  0  0  0  0
  7  8  1  0  0  0  0
  8  9  1  0  0  0  0
  9 10  1  0  0  0  0
 10 11  1  0  0  0  0
 11 12  1  0  0  0  0
M  END
> <activity>
75.0

> <InChiKey>
KXPXKNBDCUOENF-UHFFFAOYSA-N

$$$$

  Mrv2220 08292413132D          

 10 10  0  0  0  0            999 V2000
    0.0000    2.4750    0.0000 C   0  0  0  0  0  0  0  0  0  0  0  0
    0.7145    2.0625    0.0000 O   0  0  0  0  0  0  0  0  0  0  0  0
    0.7145    1.2375    0.0000 C   0  0  0  0  0  0  0  0  0  0  0  0
    1.4289    0.8250    0.0000 C   0  0  0  0  0  0  0  0  0  0  0  0
    1.4289   -0.0000    0.0000 C   0  0  0  0  0  0  0  0  0  0  0  0
    0.7145   -0.4125    0.0000 C   0  0  0  0  0  0  0  0  0  0  0  0
    0.7145   -1.2375    0.0000 C   0  0  0  0  0  0  0  0  0  0  0  0
    0.0000    0.0000    0.0000 C   0  0  0  0  0  0  0  0  0  0  0  0
    0.0000    0.8250    0.0000 C   0  0  0  0  0  0  0  0  0  0  0  0
   -0.7145    1.2375    0.0000 N   0  0  0  0  0  0  0  0  0  0  0  0
  1  2  1  0  0  0  0
  2  3  1  0  0  0  0
  3  4  4  0  0  0  0
  4  5  4  0  0  0  0
  5  6  4  0  0  0  0
  6  7  1  0  0  0  0
  6  8  4  0  0  0  0
  8  9  4  0  0  0  0
  3  9  4  0  0  0  0
  9 10  1  0  0  0  0
M  END
> <activity>
37.4

> <InChiKey>
WXWCDTXEKCVRRO-UHFFFAOYSA-N

$$$$

  Mrv2220 08292413132D          

  5  4  0  0  0  0            999 V2000
    2.4750   -1.4289    0.0000 C   0  0  0  0  0  0  0  0  0  0  0  0
    2.0625   -0.7145    0.0000 O   0  0  0  0  0  0  0  0  0  0  0  0
    1.2375   -0.7145    0.0000 C   0  0  0  0  0  0  0  0  0  0  0  0
    0.8250    0.0000    0.0000 C   0  0  0  0  0  0  0  0  0  0  0  0
    0.0000    0.0000    0.0000 O   0  0  0  0  0  0  0  0  0  0  0  0
  1  2  1  0  0  0  0
  2  3  1  0  0  0  0
  3  4  1  0  0  0  0
  4  5  1  0  0  0  0
M  END
> <activity>
23.3

> <InChiKey>
XNWFRZJHXBZDAG-UHFFFAOYSA-N

$$$$

  Mrv2220 08292413132D          

  9  9  0  0  0  0            999 V2000
    0.0000    2.4750    0.0000 C   0  0  0  0  0  0  0  0  0  0  0  0
    0.7145    2.0625    0.0000 O   0  0  0  0  0  0  0  0  0  0  0  0
    0.7145    1.2375    0.0000 C   0  0  0  0  0  0  0  0  0  0  0  0
    1.4289    0.8250    0.0000 C   0  0  0  0  0  0  0  0  0  0  0  0
    1.4289   -0.0000    0.0000 C   0  0  0  0  0  0  0  0  0  0  0  0
    0.7145   -0.4125    0.0000 C   0  0  0  0  0  0  0  0  0  0  0  0
    0.0000    0.0000    0.0000 C   0  0  0  0  0  0  0  0  0  0  0  0
    0.0000    0.8250    0.0000 C   0  0  0  0  0  0  0  0  0  0  0  0
   -0.7145    1.2375    0.0000 O   0  0  0  0  0  0  0  0  0  0  0  0
  1  2  1  0  0  0  0
  2  3  1  0  0  0  0
  3  4  4  0  0  0  0
  4  5  4  0  0  0  0
  5  6  4  0  0  0  0
  6  7  4  0  0  0  0
  7  8  4  0  0  0  0
  3  8  4  0  0  0  0
  8  9  1  0  0  0  0
M  END
> <activity>
52.3

> <InChiKey>
LHGVFZTZFXWLCP-UHFFFAOYSA-N

$$$$

  Mrv2220 08292413132D          

  8  7  0  0  0  0            999 V2000
    0.1105   -2.0625    0.0000 C   0  0  0  0  0  0  0  0  0  0  0  0
    0.1105   -1.2375    0.0000 C   0  0  0  0  0  0  0  0  0  0  0  0
   -0.6039   -0.8250    0.0000 O   0  0  0  0  0  0  0  0  0  0  0  0
    0.8250   -0.8250    0.0000 C   0  0  0  0  0  0  0  0  0  0  0  0
    0.8250    0.0000    0.0000 C   0  0  0  0  0  0  0  0  0  0  0  0
    0.8250    0.8250    0.0000 C   0  0  0  0  0  0  0  0  0  0  0  0
    1.6500   -0.0000    0.0000 C   0  0  0  0  0  0  0  0  0  0  0  0
    0.0000    0.0000    0.0000 O   0  0  0  0  0  0  0  0  0  0  0  0
  1  2  1  0  0  0  0
  2  3  1  0  0  0  0
  2  4  1  0  0  0  0
  4  5  1  0  0  0  0
  5  6  1  0  0  0  0
  5  7  1  0  0  0  0
  5  8  1  0  0  0  0
M  END
> <activity>
13.1

> <InChiKey>
SVTBMSDMJJWYQN-UHFFFAOYSA-N

$$$$

  Mrv2220 08292413132D          

 12 11  0  0  0  0            999 V2000
    2.9980    2.5559    0.0000 C   0  0  0  0  0  0  0  0  0  0  0  0
    3.7125    2.1434    0.0000 C   0  0  0  0  0  0  0  0  0  0  0  0
    4.4270    2.5559    0.0000 C   0  0  0  0  0  0  0  0  0  0  0  0
    4.4270    3.3809    0.0000 C   0  0  0  0  0  0  0  0  0  0  0  0
    5.1414    2.1434    0.0000 C   0  0  0  0  0  0  0  0  0  0  0  0
    5.8559    2.5559    0.0000 O   0  0  0  0  0  0  0  0  0  0  0  0
    6.5704    2.1434    0.0000 C   0  0  0  0  0  0  0  0  0  0  0  0
    6.5704    1.3184    0.0000 O   0  0  0  0  0  0  0  0  0  0  0  0
    7.2849    2.5559    0.0000 C   0  0  0  0  0  0  0  0  0  0  0  0
    7.9993    2.1434    0.0000 C   0  0  0  0  0  0  0  0  0  0  0  0
    8.7138    2.5559    0.0000 C   0  0  0  0  0  0  0  0  0  0  0  0
    7.9993    1.3184    0.0000 C   0  0  0  0  0  0  0  0  0  0  0  0
  1  2  1  0  0  0  0
  2  3  1  0  0  0  0
  3  4  1  0  0  0  0
  3  5  1  0  0  0  0
  5  6  1  0  0  0  0
  6  7  1  0  0  0  0
  7  8  2  0  0  0  0
  7  9  1  0  0  0  0
  9 10  1  0  0  0  0
 10 11  1  0  0  0  0
 10 12  1  0  0  0  0
M  END
> <activity>
1.6

> <InChiKey>
CYGPPWVXOWCHJB-UHFFFAOYSA-N

$$$$

  Mrv2220 08292413132D          

  8  7  0  0  0  0            999 V2000
    3.1895   -2.6664    0.0000 C   0  0  0  0  0  0  0  0  0  0  0  0
    3.1895   -1.8414    0.0000 C   0  0  0  0  0  0  0  0  0  0  0  0
    2.4750   -1.4289    0.0000 C   0  0  0  0  0  0  0  0  0  0  0  0
    1.7605   -1.0164    0.0000 N   0  0  0  0  0  0  0  0  0  0  0  0
    3.9039   -1.4289    0.0000 C   0  0  0  0  0  0  0  0  0  0  0  0
    4.6184   -1.8414    0.0000 C   0  0  0  0  0  0  0  0  0  0  0  0
    5.3329   -1.4289    0.0000 C   0  0  0  0  0  0  0  0  0  0  0  0
    6.0474   -1.0164    0.0000 N   0  0  0  0  0  0  0  0  0  0  0  0
  1  2  1  0  0  0  0
  2  3  1  0  0  0  0
  3  4  3  0  0  0  0
  2  5  1  0  0  0  0
  5  6  1  0  0  0  0
  6  7  1  0  0  0  0
  7  8  3  0  0  0  0
M  END
> <activity>
0.2

> <InChiKey>
FPPLREPCQJZDAQ-UHFFFAOYSA-N

$$$$

  Mrv2220 08292413132D          

  5  4  0  0  0  0            999 V2000
    2.0625   -0.7145    0.0000 C   0  0  0  0  0  0  0  0  0  0  0  0
    1.6500   -0.0000    0.0000 C   0  0  0  0  0  0  0  0  0  0  0  0
    2.0625    0.7145    0.0000 C   0  0  0  0  0  0  0  0  0  0  0  0
    0.8250    0.0000    0.0000 C   0  0  0  0  0  0  0  0  0  0  0  0
    0.0000    0.0000    0.0000 N   0  0  0  0  0  0  0  0  0  0  0  0
  1  2  1  0  0  0  0
  2  3  1  0  0  0  0
  2  4  1  0  0  0  0
  4  5  3  0  0  0  0
M  END
> <activity>
4.9

> <InChiKey>
LRDFRRGEGBBSRN-UHFFFAOYSA-N

$$$$

  Mrv2220 08292413132D          

 10 10  0  0  0  0            999 V2000
    0.7145    2.0625    0.0000 N   0  0  0  0  0  0  0  0  0  0  0  0
    0.7145    1.2375    0.0000 C   0  0  0  0  0  0  0  0  0  0  0  0
    1.4289    0.8250    0.0000 C   0  0  0  0  0  0  0  0  0  0  0  0
    1.4289   -0.0000    0.0000 C   0  0  0  0  0  0  0  0  0  0  0  0
    0.7145   -0.4125    0.0000 C   0  0  0  0  0  0  0  0  0  0  0  0
    0.0000    0.0000    0.0000 C   0  0  0  0  0  0  0  0  0  0  0  0
    0.0000    0.8250    0.0000 C   0  0  0  0  0  0  0  0  0  0  0  0
   -0.7145    1.2375    0.0000 N   0  3  0  0  0  0  0  0  0  0  0  0
   -1.4289    0.8250    0.0000 O   0  0  0  0  0  0  0  0  0  0  0  0
   -0.7145    2.0625    0.0000 O   0  5  0  0  0  0  0  0  0  0  0  0
  1  2  1  0  0  0  0
  2  3  4  0  0  0  0
  3  4  4  0  0  0  0
  4  5  4  0  0  0  0
  5  6  4  0  0  0  0
  6  7  4  0  0  0  0
  2  7  4  0  0  0  0
  7  8  1  0  0  0  0
  8  9  2  0  0  0  0
  8 10  1  0  0  0  0
M  CHG  2   8   1  10  -1
M  END
> <activity>
95.2

> <InChiKey>
DPJCXCZTLWNFOH-UHFFFAOYSA-N

$$$$

  Mrv2220 08292413132D          

 21 20  0  0  0  0            999 V2000
    9.1855    6.1283    0.0000 C   0  0  0  0  0  0  0  0  0  0  0  0
    9.9000    5.7158    0.0000 C   0  0  0  0  0  0  0  0  0  0  0  0
   10.6145    6.1283    0.0000 C   0  0  0  0  0  0  0  0  0  0  0  0
   11.3289    5.7158    0.0000 C   0  0  0  0  0  0  0  0  0  0  0  0
   12.0434    6.1283    0.0000 C   0  0  0  0  0  0  0  0  0  0  0  0
   12.7579    5.7158    0.0000 C   0  0  0  0  0  0  0  0  0  0  0  0
   13.4724    6.1283    0.0000 C   0  0  0  0  0  0  0  0  0  0  0  0
   14.1868    5.7158    0.0000 C   0  0  0  0  0  0  0  0  0  0  0  0
   14.9013    6.1283    0.0000 C   0  0  0  0  0  0  0  0  0  0  0  0
   15.6158    5.7158    0.0000 C   0  0  0  0  0  0  0  0  0  0  0  0
   16.3302    6.1283    0.0000 C   0  0  0  0  0  0  0  0  0  0  0  0
   16.3302    6.9533    0.0000 C   0  0  0  0  0  0  0  0  0  0  0  0
   17.0447    7.3658    0.0000 O   0  0  0  0  0  0  0  0  0  0  0  0
   17.0447    5.7158    0.0000 C   0  0  0  0  0  0  0  0  0  0  0  0
   17.7592    6.1283    0.0000 C   0  0  0  0  0  0  0  0  0  0  0  0
   18.4737    5.7158    0.0000 C   0  0  0  0  0  0  0  0  0  0  0  0
   19.1881    6.1283    0.0000 C   0  0  0  0  0  0  0  0  0  0  0  0
   19.9026    5.7158    0.0000 C   0  0  0  0  0  0  0  0  0  0  0  0
   20.6171    6.1283    0.0000 C   0  0  0  0  0  0  0  0  0  0  0  0
   21.3315    5.7158    0.0000 C   0  0  0  0  0  0  0  0  0  0  0  0
   22.0460    6.1283    0.0000 C   0  0  0  0  0  0  0  0  0  0  0  0
  1  2  1  0  0  0  0
  2  3  1  0  0  0  0
  3  4  1  0  0  0  0
  4  5  1  0  0  0  0
  5  6  1  0  0  0  0
  6  7  1  0  0  0  0
  7  8  1  0  0  0  0
  8  9  1  0  0  0  0
  9 10  1  0  0  0  0
 10 11  1  0  0  0  0
 11 12  1  0  0  0  0
 12 13  1  0  0  0  0
 11 14  1  0  0  0  0
 14 15  1  0  0  0  0
 15 16  1  0  0  0  0
 16 17  1  0  0  0  0
 17 18  1  0  0  0  0
 18 19  1  0  0  0  0
 19 20  1  0  0  0  0
 20 21  1  0  0  0  0
M  END
> <activity>
14.0

> <InChiKey>
LEACJMVNYZDSKR-UHFFFAOYSA-N

$$$$

  Mrv2220 08292413132D          

  6  5  0  0  0  0            999 V2000
    1.2375    2.1434    0.0000 C   0  0  0  0  0  0  0  0  0  0  0  0
    0.8250    1.4289    0.0000 C   0  0  0  0  0  0  0  0  0  0  0  0
    1.2375    0.7145    0.0000 C   0  0  0  0  0  0  0  0  0  0  0  0
    0.8250    0.0000    0.0000 C   0  0  0  0  0  0  0  0  0  0  0  0
    1.2375   -0.7145    0.0000 C   0  0  0  0  0  0  0  0  0  0  0  0
    0.0000    0.0000    0.0000 O   0  0  0  0  0  0  0  0  0  0  0  0
  1  2  1  0  0  0  0
  2  3  1  0  0  0  0
  3  4  1  0  0  0  0
  4  5  1  0  0  0  0
  4  6  2  0  0  0  0
M  END
> <activity>
11.9

> <InChiKey>
XNLICIUVMPYHGG-UHFFFAOYSA-N

$$$$

  Mrv2220 08292413132D          

 10 10  0  0  0  0            999 V2000
   -0.7145    3.7125    0.0000 O   0  0  0  0  0  0  0  0  0  0  0  0
    0.0000    3.3000    0.0000 C   0  0  0  0  0  0  0  0  0  0  0  0
    0.0000    2.4750    0.0000 C   0  0  0  0  0  0  0  0  0  0  0  0
    0.7145    2.0625    0.0000 O   0  0  0  0  0  0  0  0  0  0  0  0
    0.7145    1.2375    0.0000 C   0  0  0  0  0  0  0  0  0  0  0  0
    1.4289    0.8250    0.0000 C   0  0  0  0  0  0  0  0  0  0  0  0
    1.4289   -0.0000    0.0000 C   0  0  0  0  0  0  0  0  0  0  0  0
    0.7145   -0.4125    0.0000 C   0  0  0  0  0  0  0  0  0  0  0  0
    0.0000    0.0000    0.0000 C   0  0  0  0  0  0  0  0  0  0  0  0
    0.0000    0.8250    0.0000 C   0  0  0  0  0  0  0  0  0  0  0  0
  1  2  1  0  0  0  0
  2  3  1  0  0  0  0
  3  4  1  0  0  0  0
  4  5  1  0  0  0  0
  5  6  4  0  0  0  0
  6  7  4  0  0  0  0
  7  8  4  0  0  0  0
  8  9  4  0  0  0  0
  9 10  4  0  0  0  0
  5 10  4  0  0  0  0
M  END
> <activity>
3.3

> <InChiKey>
QCDWFXQBSFUVSP-UHFFFAOYSA-N

$$$$

  Mrv2220 08292413132D          

  9  9  0  0  0  0            999 V2000
    0.0000    3.3000    0.0000 O   0  0  0  0  0  0  0  0  0  0  0  0
    0.0000    2.4750    0.0000 C   0  0  0  0  0  0  0  0  0  0  0  0
    0.7145    2.0625    0.0000 C   0  0  0  0  0  0  0  0  0  0  0  0
    0.7145    1.2375    0.0000 C   0  0  0  0  0  0  0  0  0  0  0  0
    1.4289    0.8250    0.0000 C   0  0  0  0  0  0  0  0  0  0  0  0
    1.4289   -0.0000    0.0000 C   0  0  0  0  0  0  0  0  0  0  0  0
    0.7145   -0.4125    0.0000 C   0  0  0  0  0  0  0  0  0  0  0  0
    0.0000    0.0000    0.0000 C   0  0  0  0  0  0  0  0  0  0  0  0
    0.0000    0.8250    0.0000 C   0  0  0  0  0  0  0  0  0  0  0  0
  1  2  1  0  0  0  0
  2  3  1  0  0  0  0
  3  4  1  0  0  0  0
  4  5  4  0  0  0  0
  5  6  4  0  0  0  0
  6  7  4  0  0  0  0
  7  8  4  0  0  0  0
  8  9  4  0  0  0  0
  4  9  4  0  0  0  0
M  END
> <activity>
7.4

> <InChiKey>
WRMNZCZEMHIOCP-UHFFFAOYSA-N

$$$$

  Mrv2220 08292413132D          

 17 18  0  0  0  0            999 V2000
    0.7145   -2.8875    0.0000 O   0  0  0  0  0  0  0  0  0  0  0  0
    0.7145   -2.0625    0.0000 C   0  0  0  0  0  0  0  0  0  0  0  0
    1.4289   -1.6500    0.0000 O   0  0  0  0  0  0  0  0  0  0  0  0
    2.1434   -2.0625    0.0000 C   0  0  0  0  0  0  0  0  0  0  0  0
    2.8579   -1.6500    0.0000 C   0  0  0  0  0  0  0  0  0  0  0  0
    3.5724   -2.0625    0.0000 C   0  0  0  0  0  0  0  0  0  0  0  0
    4.2868   -1.6500    0.0000 C   0  0  0  0  0  0  0  0  0  0  0  0
    5.0013   -2.0625    0.0000 C   0  0  0  0  0  0  0  0  0  0  0  0
    5.0013   -2.8875    0.0000 C   0  0  0  0  0  0  0  0  0  0  0  0
    4.2868   -3.3000    0.0000 C   0  0  0  0  0  0  0  0  0  0  0  0
    3.5724   -2.8875    0.0000 C   0  0  0  0  0  0  0  0  0  0  0  0
    0.0000   -1.6500    0.0000 C   0  0  0  0  0  0  0  0  0  0  0  0
   -0.7145   -2.0625    0.0000 C   0  0  0  0  0  0  0  0  0  0  0  0
   -1.4289   -1.6500    0.0000 C   0  0  0  0  0  0  0  0  0  0  0  0
   -1.4289   -0.8250    0.0000 C   0  0  0  0  0  0  0  0  0  0  0  0
   -0.7145   -0.4125    0.0000 C   0  0  0  0  0  0  0  0  0  0  0  0
    0.0000   -0.8250    0.0000 C   0  0  0  0  0  0  0  0  0  0  0  0
  1  2  2  0  0  0  0
  2  3  1  0  0  0  0
  3  4  1  0  0  0  0
  4  5  1  0  0  0  0
  5  6  1  0  0  0  0
  6  7  4  0  0  0  0
  7  8  4  0  0  0  0
  8  9  4  0  0  0  0
  9 10  4  0  0  0  0
 10 11  4  0  0  0  0
  6 11  4  0  0  0  0
  2 12  1  0  0  0  0
 12 13  4  0  0  0  0
 13 14  4  0  0  0  0
 14 15  4  0  0  0  0
 15 16  4  0  0  0  0
 16 17  4  0  0  0  0
 12 17  4  0  0  0  0
M  END
> <activity>
91.9

> <InChiKey>
OSORMYZMWHVFOZ-UHFFFAOYSA-N

$$$$

  Mrv2220 08292413132D          

 13 14  0  0  0  0            999 V2000
    0.7145   -0.4125    0.0000 O   0  0  0  0  0  0  0  0  0  0  0  0
    0.7145   -1.2375    0.0000 C   0  0  0  0  0  0  0  0  0  0  0  0
    1.4289   -1.6500    0.0000 C   0  0  0  0  0  0  0  0  0  0  0  0
    1.4289   -2.4750    0.0000 C   0  0  0  0  0  0  0  0  0  0  0  0
    0.7145   -2.8875    0.0000 C   0  0  0  0  0  0  0  0  0  0  0  0
    0.0000   -2.4750    0.0000 C   0  0  0  0  0  0  0  0  0  0  0  0
    0.0000   -1.6500    0.0000 C   0  0  0  0  0  0  0  0  0  0  0  0
   -0.7145   -1.2375    0.0000 C   0  0  0  0  0  0  0  0  0  0  0  0
   -1.4289   -1.6500    0.0000 C   0  0  0  0  0  0  0  0  0  0  0  0
   -2.1434   -1.2375    0.0000 C   0  0  0  0  0  0  0  0  0  0  0  0
   -2.1434   -0.4125    0.0000 C   0  0  0  0  0  0  0  0  0  0  0  0
   -1.4289    0.0000    0.0000 C   0  0  0  0  0  0  0  0  0  0  0  0
   -0.7145   -0.4125    0.0000 C   0  0  0  0  0  0  0  0  0  0  0  0
  1  2  1  0  0  0  0
  2  3  4  0  0  0  0
  3  4  4  0  0  0  0
  4  5  4  0  0  0  0
  5  6  4  0  0  0  0
  6  7  4  0  0  0  0
  2  7  4  0  0  0  0
  7  8  1  0  0  0  0
  8  9  4  0  0  0  0
  9 10  4  0  0  0  0
 10 11  4  0  0  0  0
 11 12  4  0  0  0  0
 12 13  4  0  0  0  0
  8 13  4  0  0  0  0
M  END
> <activity>
91.7

> <InChiKey>
LLEMOWNGBBNAJR-UHFFFAOYSA-N

$$$$

  Mrv2220 08292413132D          

  7  6  0  0  0  0            999 V2000
    1.7605    1.8414    0.0000 C   0  0  0  0  0  0  0  0  0  0  0  0
    2.4750    1.4289    0.0000 C   0  0  0  0  0  0  0  0  0  0  0  0
    3.1895    1.8414    0.0000 C   0  0  0  0  0  0  0  0  0  0  0  0
    3.9039    1.4289    0.0000 O   0  0  0  0  0  0  0  0  0  0  0  0
    4.6184    1.8414    0.0000 C   0  0  0  0  0  0  0  0  0  0  0  0
    5.3329    1.4289    0.0000 C   0  0  0  0  0  0  0  0  0  0  0  0
    6.0474    1.8414    0.0000 O   0  0  0  0  0  0  0  0  0  0  0  0
  1  2  1  0  0  0  0
  2  3  1  0  0  0  0
  3  4  1  0  0  0  0
  4  5  1  0  0  0  0
  5  6  1  0  0  0  0
  6  7  1  0  0  0  0
M  END
> <activity>
3.0

> <InChiKey>
YEYKMVJDLWJFOA-UHFFFAOYSA-N

$$$$

  Mrv2220 08292413132D          

  6  6  0  0  0  0            999 V2000
    0.5678    1.9393    0.0000 O   0  0  0  0  0  0  0  0  0  0  0  0
    0.5678    1.1143    0.0000 C   0  0  0  0  0  0  0  0  0  0  0  0
    1.2352    0.6294    0.0000 C   0  0  0  0  0  0  0  0  0  0  0  0
    0.9803   -0.1553    0.0000 C   0  0  0  0  0  0  0  0  0  0  0  0
    0.1553   -0.1553    0.0000 C   0  0  0  0  0  0  0  0  0  0  0  0
   -0.0997    0.6294    0.0000 N   0  0  0  0  0  0  0  0  0  0  0  0
  1  2  2  0  0  0  0
  2  3  1  0  0  0  0
  3  4  1  0  0  0  0
  4  5  1  0  0  0  0
  5  6  1  0  0  0  0
  2  6  1  0  0  0  0
M  END
> <activity>
13.1

> <InChiKey>
HNJBEVLQSNELDL-UHFFFAOYSA-N

$$$$

  Mrv2220 08292413132D          

 11 11  0  0  0  0            999 V2000
    0.0000    3.3000    0.0000 C   0  0  0  0  0  0  0  0  0  0  0  0
    0.0000    2.4750    0.0000 C   0  0  0  0  0  0  0  0  0  0  0  0
    0.7145    2.0625    0.0000 C   0  0  0  0  0  0  0  0  0  0  0  0
    1.4289    2.4750    0.0000 C   0  0  0  0  0  0  0  0  0  0  0  0
    0.7145    1.2375    0.0000 C   0  0  0  0  0  0  0  0  0  0  0  0
    1.4289    0.8250    0.0000 C   0  0  0  0  0  0  0  0  0  0  0  0
    1.4289   -0.0000    0.0000 C   0  0  0  0  0  0  0  0  0  0  0  0
    0.7145   -0.4125    0.0000 C   0  0  0  0  0  0  0  0  0  0  0  0
    0.0000    0.0000    0.0000 C   0  0  0  0  0  0  0  0  0  0  0  0
    0.0000    0.8250    0.0000 C   0  0  0  0  0  0  0  0  0  0  0  0
   -0.7145    1.2375    0.0000 O   0  0  0  0  0  0  0  0  0  0  0  0
  1  2  1  0  0  0  0
  2  3  1  0  0  0  0
  3  4  1  0  0  0  0
  3  5  1  0  0  0  0
  5  6  1  0  0  0  0
  6  7  1  0  0  0  0
  7  8  1  0  0  0  0
  8  9  1  0  0  0  0
  9 10  1  0  0  0  0
  5 10  1  0  0  0  0
 10 11  2  0  0  0  0
M  END
> <activity>
9.9

> <InChiKey>
RQXTZKGDMNIWJF-UHFFFAOYSA-N

$$$$

  Mrv2220 08292413132D          

 13 13  0  0  0  0            999 V2000
    0.0000    2.4750    0.0000 C   0  0  0  0  0  0  0  0  0  0  0  0
    0.7145    2.0625    0.0000 C   0  0  0  0  0  0  0  0  0  0  0  0
    0.7145    1.2375    0.0000 C   0  0  0  0  0  0  0  0  0  0  0  0
    1.4289    0.8250    0.0000 C   0  0  0  0  0  0  0  0  0  0  0  0
    1.4289   -0.0000    0.0000 C   0  0  0  0  0  0  0  0  0  0  0  0
    0.7145   -0.4125    0.0000 C   0  0  0  0  0  0  0  0  0  0  0  0
    0.7145   -1.2375    0.0000 O   0  0  0  0  0  0  0  0  0  0  0  0
    0.0000    0.0000    0.0000 C   0  0  0  0  0  0  0  0  0  0  0  0
   -0.7145   -0.4125    0.0000 C   0  0  0  0  0  0  0  0  0  0  0  0
   -1.4289   -0.8250    0.0000 C   0  0  0  0  0  0  0  0  0  0  0  0
   -1.1270    0.3020    0.0000 C   0  0  0  0  0  0  0  0  0  0  0  0
   -0.3020   -1.1270    0.0000 C   0  0  0  0  0  0  0  0  0  0  0  0
    0.0000    0.8250    0.0000 C   0  0  0  0  0  0  0  0  0  0  0  0
  1  2  1  0  0  0  0
  2  3  1  0  0  0  0
  3  4  4  0  0  0  0
  4  5  4  0  0  0  0
  5  6  4  0  0  0  0
  6  7  1  0  0  0  0
  6  8  4  0  0  0  0
  8  9  1  0  0  0  0
  9 10  1  0  0  0  0
  9 11  1  0  0  0  0
  9 12  1  0  0  0  0
  8 13  4  0  0  0  0
  3 13  4  0  0  0  0
M  END
> <activity>
87.9

> <InChiKey>
LZHCVNIARUXHAL-UHFFFAOYSA-N

$$$$

  Mrv2220 08292413132D          

 12 12  0  0  0  0            999 V2000
    0.7145    2.0625    0.0000 C   0  0  0  0  0  0  0  0  0  0  0  0
    0.7145    1.2375    0.0000 C   0  0  0  0  0  0  0  0  0  0  0  0
    1.4289    0.8250    0.0000 C   0  0  0  0  0  0  0  0  0  0  0  0
    1.4289   -0.0000    0.0000 C   0  0  0  0  0  0  0  0  0  0  0  0
    0.7145   -0.4125    0.0000 C   0  0  0  0  0  0  0  0  0  0  0  0
    0.7145   -1.2375    0.0000 C   0  0  0  0  0  0  0  0  0  0  0  0
    0.7145   -2.0625    0.0000 C   0  0  0  0  0  0  0  0  0  0  0  0
   -0.1105   -1.2375    0.0000 C   0  0  0  0  0  0  0  0  0  0  0  0
    1.5395   -1.2375    0.0000 C   0  0  0  0  0  0  0  0  0  0  0  0
    0.0000    0.0000    0.0000 C   0  0  0  0  0  0  0  0  0  0  0  0
   -0.7145   -0.4125    0.0000 O   0  0  0  0  0  0  0  0  0  0  0  0
    0.0000    0.8250    0.0000 C   0  0  0  0  0  0  0  0  0  0  0  0
  1  2  1  0  0  0  0
  2  3  4  0  0  0  0
  3  4  4  0  0  0  0
  4  5  4  0  0  0  0
  5  6  1  0  0  0  0
  6  7  1  0  0  0  0
  6  8  1  0  0  0  0
  6  9  1  0  0  0  0
  5 10  4  0  0  0  0
 10 11  1  0  0  0  0
 10 12  4  0  0  0  0
  2 12  4  0  0  0  0
M  END
> <activity>
66.2

> <InChiKey>
XOUQAVYLRNOXDO-UHFFFAOYSA-N

$$$$

  Mrv2220 08292413132D          

 12 11  0  0  0  0            999 V2000
    4.2355    3.2704    0.0000 C   0  0  0  0  0  0  0  0  0  0  0  0
    4.9500    2.8579    0.0000 C   0  0  0  0  0  0  0  0  0  0  0  0
    5.6645    3.2704    0.0000 C   0  0  0  0  0  0  0  0  0  0  0  0
    6.3789    2.8579    0.0000 C   0  0  0  0  0  0  0  0  0  0  0  0
    7.0934    3.2704    0.0000 C   0  0  0  0  0  0  0  0  0  0  0  0
    7.8079    2.8579    0.0000 C   0  0  0  0  0  0  0  0  0  0  0  0
    8.5224    3.2704    0.0000 C   0  0  0  0  0  0  0  0  0  0  0  0
    9.2368    2.8579    0.0000 C   0  0  0  0  0  0  0  0  0  0  0  0
    9.9513    3.2704    0.0000 C   0  0  0  0  0  0  0  0  0  0  0  0
   10.6658    2.8579    0.0000 C   0  0  0  0  0  0  0  0  0  0  0  0
   11.3802    3.2704    0.0000 C   0  0  0  0  0  0  0  0  0  0  0  0
   10.6658    2.0329    0.0000 O   0  0  0  0  0  0  0  0  0  0  0  0
  1  2  1  0  0  0  0
  2  3  1  0  0  0  0
  3  4  1  0  0  0  0
  4  5  1  0  0  0  0
  5  6  1  0  0  0  0
  6  7  1  0  0  0  0
  7  8  1  0  0  0  0
  8  9  1  0  0  0  0
  9 10  1  0  0  0  0
 10 11  1  0  0  0  0
 10 12  2  0  0  0  0
M  END
> <activity>
15.8

> <InChiKey>
KYWIYKKSMDLRDC-UHFFFAOYSA-N

$$$$

  Mrv2220 08292413132D          

  8  7  0  0  0  0            999 V2000
    2.0625    2.1434    0.0000 N   0  0  0  0  0  0  0  0  0  0  0  0
    1.6500    1.4289    0.0000 C   0  0  0  0  0  0  0  0  0  0  0  0
    1.2375    0.7145    0.0000 C   0  0  0  0  0  0  0  0  0  0  0  0
    0.5230    1.1270    0.0000 Br  0  0  0  0  0  0  0  0  0  0  0  0
    1.9520    0.3020    0.0000 Br  0  0  0  0  0  0  0  0  0  0  0  0
    0.8250    0.0000    0.0000 C   0  0  0  0  0  0  0  0  0  0  0  0
    1.2375   -0.7145    0.0000 N   0  0  0  0  0  0  0  0  0  0  0  0
    0.0000    0.0000    0.0000 O   0  0  0  0  0  0  0  0  0  0  0  0
  1  2  3  0  0  0  0
  2  3  1  0  0  0  0
  3  4  1  0  0  0  0
  3  5  1  0  0  0  0
  3  6  1  0  0  0  0
  6  7  1  0  0  0  0
  6  8  2  0  0  0  0
M  END
> <activity>
25.8

> <InChiKey>
UUIVKBHZENILKB-UHFFFAOYSA-N

$$$$

  Mrv2220 08292413132D          

 15 16  0  0  0  0            999 V2000
    2.1434   -0.4125    0.0000 O   0  0  0  0  0  0  0  0  0  0  0  0
    2.1434   -1.2375    0.0000 C   0  0  0  0  0  0  0  0  0  0  0  0
    1.4289   -1.6500    0.0000 C   0  0  0  0  0  0  0  0  0  0  0  0
    1.4289   -2.4750    0.0000 C   0  0  0  0  0  0  0  0  0  0  0  0
    2.1434   -2.8875    0.0000 C   0  0  0  0  0  0  0  0  0  0  0  0
    2.8579   -2.4750    0.0000 C   0  0  0  0  0  0  0  0  0  0  0  0
    2.8579   -1.6500    0.0000 C   0  0  0  0  0  0  0  0  0  0  0  0
    3.5724   -1.2375    0.0000 C   0  0  0  0  0  0  0  0  0  0  0  0
    4.2868   -1.6500    0.0000 C   0  0  0  0  0  0  0  0  0  0  0  0
    5.0013   -1.2375    0.0000 C   0  0  0  0  0  0  0  0  0  0  0  0
    5.7158   -1.6500    0.0000 C   0  0  0  0  0  0  0  0  0  0  0  0
    5.7158   -2.4750    0.0000 C   0  0  0  0  0  0  0  0  0  0  0  0
    5.0013   -2.8875    0.0000 C   0  0  0  0  0  0  0  0  0  0  0  0
    4.2868   -2.4750    0.0000 C   0  0  0  0  0  0  0  0  0  0  0  0
    3.5724   -2.8875    0.0000 O   0  0  0  0  0  0  0  0  0  0  0  0
  1  2  1  0  0  0  0
  2  3  4  0  0  0  0
  3  4  4  0  0  0  0
  4  5  4  0  0  0  0
  5  6  4  0  0  0  0
  6  7  4  0  0  0  0
  2  7  4  0  0  0  0
  7  8  1  0  0  0  0
  8  9  1  0  0  0  0
  9 10  4  0  0  0  0
 10 11  4  0  0  0  0
 11 12  4  0  0  0  0
 12 13  4  0  0  0  0
 13 14  4  0  0  0  0
  9 14  4  0  0  0  0
 14 15  1  0  0  0  0
M  END
> <activity>
100.9

> <InChiKey>
MQCPOLNSJCWPGT-UHFFFAOYSA-N

$$$$

  Mrv2220 08292413132D          

 25 26  0  0  0  0            999 V2000
   -0.7145   -0.4125    0.0000 C   0  0  0  0  0  0  0  0  0  0  0  0
   -0.7145   -1.2375    0.0000 C   0  0  0  0  0  0  0  0  0  0  0  0
    0.0000   -1.6500    0.0000 C   0  0  0  0  0  0  0  0  0  0  0  0
    0.0000   -2.4750    0.0000 C   0  0  0  0  0  0  0  0  0  0  0  0
    0.7145   -2.8875    0.0000 C   0  0  0  0  0  0  0  0  0  0  0  0
    1.4289   -2.4750    0.0000 C   0  0  0  0  0  0  0  0  0  0  0  0
    1.4289   -1.6500    0.0000 C   0  0  0  0  0  0  0  0  0  0  0  0
    2.1434   -1.2375    0.0000 C   0  0  0  0  0  0  0  0  0  0  0  0
    2.1434   -0.4125    0.0000 C   0  0  0  0  0  0  0  0  0  0  0  0
    2.8579   -1.6500    0.0000 C   0  0  0  0  0  0  0  0  0  0  0  0
    2.8579   -2.4750    0.0000 C   0  0  0  0  0  0  0  0  0  0  0  0
    3.5724   -2.8875    0.0000 C   0  0  0  0  0  0  0  0  0  0  0  0
    4.2868   -3.3000    0.0000 C   0  0  0  0  0  0  0  0  0  0  0  0
    3.9849   -2.1730    0.0000 C   0  0  0  0  0  0  0  0  0  0  0  0
    3.1599   -3.6020    0.0000 C   0  0  0  0  0  0  0  0  0  0  0  0
    2.1434   -2.8875    0.0000 C   0  0  0  0  0  0  0  0  0  0  0  0
    2.1434   -3.7125    0.0000 O   0  0  0  0  0  0  0  0  0  0  0  0
   -0.7145   -2.8875    0.0000 C   0  0  0  0  0  0  0  0  0  0  0  0
   -0.7145   -3.7125    0.0000 O   0  0  0  0  0  0  0  0  0  0  0  0
   -1.4289   -2.4750    0.0000 C   0  0  0  0  0  0  0  0  0  0  0  0
   -2.1434   -2.8875    0.0000 C   0  0  0  0  0  0  0  0  0  0  0  0
   -2.8579   -3.3000    0.0000 C   0  0  0  0  0  0  0  0  0  0  0  0
   -2.5559   -2.1730    0.0000 C   0  0  0  0  0  0  0  0  0  0  0  0
   -1.7309   -3.6020    0.0000 C   0  0  0  0  0  0  0  0  0  0  0  0
   -1.4289   -1.6500    0.0000 C   0  0  0  0  0  0  0  0  0  0  0  0
  1  2  1  0  0  0  0
  2  3  4  0  0  0  0
  3  4  4  0  0  0  0
  4  5  1  0  0  0  0
  5  6  1  0  0  0  0
  6  7  4  0  0  0  0
  7  8  4  0  0  0  0
  8  9  1  0  0  0  0
  8 10  4  0  0  0  0
 10 11  4  0  0  0  0
 11 12  1  0  0  0  0
 12 13  1  0  0  0  0
 12 14  1  0  0  0  0
 12 15  1  0  0  0  0
 11 16  4  0  0  0  0
  6 16  4  0  0  0  0
 16 17  1  0  0  0  0
  4 18  4  0  0  0  0
 18 19  1  0  0  0  0
 18 20  4  0  0  0  0
 20 21  1  0  0  0  0
 21 22  1  0  0  0  0
 21 23  1  0  0  0  0
 21 24  1  0  0  0  0
 20 25  4  0  0  0  0
  2 25  4  0  0  0  0
M  END
> <activity>
52.3

> <InChiKey>
KGRVJHAUYBGFFP-UHFFFAOYSA-N

$$$$

  Mrv2220 08292413132D          

 27 28  0  0  0  0            999 V2000
    1.4289    0.0000    0.0000 C   0  0  0  0  0  0  0  0  0  0  0  0
    2.1434   -0.4125    0.0000 C   0  0  0  0  0  0  0  0  0  0  0  0
    2.1434   -1.2375    0.0000 C   0  0  0  0  0  0  0  0  0  0  0  0
    1.4289   -1.6500    0.0000 C   0  0  0  0  0  0  0  0  0  0  0  0
    1.4289   -2.4750    0.0000 C   0  0  0  0  0  0  0  0  0  0  0  0
    0.7145   -2.8875    0.0000 C   0  0  0  0  0  0  0  0  0  0  0  0
    0.0000   -2.4750    0.0000 C   0  0  0  0  0  0  0  0  0  0  0  0
   -0.7145   -2.8875    0.0000 C   0  0  0  0  0  0  0  0  0  0  0  0
   -1.4289   -2.4750    0.0000 C   0  0  0  0  0  0  0  0  0  0  0  0
   -2.1434   -2.8875    0.0000 C   0  0  0  0  0  0  0  0  0  0  0  0
   -2.1434   -3.7125    0.0000 C   0  0  0  0  0  0  0  0  0  0  0  0
   -1.4289   -1.6500    0.0000 C   0  0  0  0  0  0  0  0  0  0  0  0
   -0.7145   -1.2375    0.0000 C   0  0  0  0  0  0  0  0  0  0  0  0
   -0.7145   -0.4125    0.0000 C   0  0  0  0  0  0  0  0  0  0  0  0
   -0.7145    0.4125    0.0000 C   0  0  0  0  0  0  0  0  0  0  0  0
    0.1105   -0.4125    0.0000 C   0  0  0  0  0  0  0  0  0  0  0  0
   -1.5395   -0.4125    0.0000 C   0  0  0  0  0  0  0  0  0  0  0  0
    0.0000   -1.6500    0.0000 C   0  0  0  0  0  0  0  0  0  0  0  0
    0.7145   -1.2375    0.0000 O   0  0  0  0  0  0  0  0  0  0  0  0
    2.1434   -2.8875    0.0000 C   0  0  0  0  0  0  0  0  0  0  0  0
    2.1434   -3.7125    0.0000 O   0  0  0  0  0  0  0  0  0  0  0  0
    2.8579   -2.4750    0.0000 C   0  0  0  0  0  0  0  0  0  0  0  0
    3.5724   -2.8875    0.0000 C   0  0  0  0  0  0  0  0  0  0  0  0
    4.2868   -3.3000    0.0000 C   0  0  0  0  0  0  0  0  0  0  0  0
    3.1599   -3.6020    0.0000 C   0  0  0  0  0  0  0  0  0  0  0  0
    3.9849   -2.1730    0.0000 C   0  0  0  0  0  0  0  0  0  0  0  0
    2.8579   -1.6500    0.0000 C   0  0  0  0  0  0  0  0  0  0  0  0
  1  2  1  0  0  0  0
  2  3  1  0  0  0  0
  3  4  4  0  0  0  0
  4  5  4  0  0  0  0
  5  6  1  0  0  0  0
  6  7  1  0  0  0  0
  7  8  4  0  0  0  0
  8  9  4  0  0  0  0
  9 10  1  0  0  0  0
 10 11  1  0  0  0  0
  9 12  4  0  0  0  0
 12 13  4  0  0  0  0
 13 14  1  0  0  0  0
 14 15  1  0  0  0  0
 14 16  1  0  0  0  0
 14 17  1  0  0  0  0
 13 18  4  0  0  0  0
  7 18  4  0  0  0  0
 18 19  1  0  0  0  0
  5 20  4  0  0  0  0
 20 21  1  0  0  0  0
 20 22  4  0  0  0  0
 22 23  1  0  0  0  0
 23 24  1  0  0  0  0
 23 25  1  0  0  0  0
 23 26  1  0  0  0  0
 22 27  4  0  0  0  0
  3 27  4  0  0  0  0
M  END
> <activity>
39.3

> <InChiKey>
GPNYZBKIGXGYNU-UHFFFAOYSA-N

$$$$

  Mrv2220 08292413132D          

 21 22  0  0  0  0            999 V2000
    1.5395   -1.2375    0.0000 C   0  0  0  0  0  0  0  0  0  0  0  0
    0.7145   -1.2375    0.0000 C   0  0  0  0  0  0  0  0  0  0  0  0
   -0.1105   -1.2375    0.0000 C   0  0  0  0  0  0  0  0  0  0  0  0
    0.7145   -2.0625    0.0000 C   0  0  0  0  0  0  0  0  0  0  0  0
    1.4289   -2.4750    0.0000 C   0  0  0  0  0  0  0  0  0  0  0  0
    1.4289   -3.3000    0.0000 C   0  0  0  0  0  0  0  0  0  0  0  0
    2.1434   -3.7125    0.0000 Cl  0  0  0  0  0  0  0  0  0  0  0  0
    0.7145   -3.7125    0.0000 C   0  0  0  0  0  0  0  0  0  0  0  0
    0.7145   -4.5375    0.0000 O   0  0  0  0  0  0  0  0  0  0  0  0
    0.0000   -3.3000    0.0000 C   0  0  0  0  0  0  0  0  0  0  0  0
   -0.7145   -3.7125    0.0000 Cl  0  0  0  0  0  0  0  0  0  0  0  0
    0.0000   -2.4750    0.0000 C   0  0  0  0  0  0  0  0  0  0  0  0
    0.7145   -0.4125    0.0000 C   0  0  0  0  0  0  0  0  0  0  0  0
    0.0000    0.0000    0.0000 C   0  0  0  0  0  0  0  0  0  0  0  0
    0.0000    0.8250    0.0000 C   0  0  0  0  0  0  0  0  0  0  0  0
   -0.7145    1.2375    0.0000 Cl  0  0  0  0  0  0  0  0  0  0  0  0
    0.7145    1.2375    0.0000 C   0  0  0  0  0  0  0  0  0  0  0  0
    0.7145    2.0625    0.0000 O   0  0  0  0  0  0  0  0  0  0  0  0
    1.4289    0.8250    0.0000 C   0  0  0  0  0  0  0  0  0  0  0  0
    2.1434    1.2375    0.0000 Cl  0  0  0  0  0  0  0  0  0  0  0  0
    1.4289   -0.0000    0.0000 C   0  0  0  0  0  0  0  0  0  0  0  0
  1  2  1  0  0  0  0
  2  3  1  0  0  0  0
  2  4  1  0  0  0  0
  4  5  4  0  0  0  0
  5  6  4  0  0  0  0
  6  7  1  0  0  0  0
  6  8  4  0  0  0  0
  8  9  1  0  0  0  0
  8 10  4  0  0  0  0
 10 11  1  0  0  0  0
 10 12  4  0  0  0  0
  4 12  4  0  0  0  0
  2 13  1  0  0  0  0
 13 14  4  0  0  0  0
 14 15  4  0  0  0  0
 15 16  1  0  0  0  0
 15 17  4  0  0  0  0
 17 18  1  0  0  0  0
 17 19  4  0  0  0  0
 19 20  1  0  0  0  0
 19 21  4  0  0  0  0
 13 21  4  0  0  0  0
M  END
> <activity>
105.2

> <InChiKey>
KYPYTERUKNKOLP-UHFFFAOYSA-N

$$$$

  Mrv2220 08292413132D          

  9  9  0  0  0  0            999 V2000
    0.7145    2.0625    0.0000 C   0  0  0  0  0  0  0  0  0  0  0  0
    0.7145    1.2375    0.0000 C   0  0  0  0  0  0  0  0  0  0  0  0
    1.4289    0.8250    0.0000 C   0  0  0  0  0  0  0  0  0  0  0  0
    1.4289   -0.0000    0.0000 C   0  0  0  0  0  0  0  0  0  0  0  0
    0.7145   -0.4125    0.0000 C   0  0  0  0  0  0  0  0  0  0  0  0
    0.0000    0.0000    0.0000 C   0  0  0  0  0  0  0  0  0  0  0  0
   -0.7145   -0.4125    0.0000 O   0  0  0  0  0  0  0  0  0  0  0  0
    0.0000    0.8250    0.0000 C   0  0  0  0  0  0  0  0  0  0  0  0
   -0.7145    1.2375    0.0000 C   0  0  0  0  0  0  0  0  0  0  0  0
  1  2  1  0  0  0  0
  2  3  4  0  0  0  0
  3  4  4  0  0  0  0
  4  5  4  0  0  0  0
  5  6  4  0  0  0  0
  6  7  1  0  0  0  0
  6  8  4  0  0  0  0
  2  8  4  0  0  0  0
  8  9  1  0  0  0  0
M  END
> <activity>
67.6

> <InChiKey>
QWBBPBRQALCEIZ-UHFFFAOYSA-N

$$$$

  Mrv2220 08292413132D          

 13 13  0  0  0  0            999 V2000
    0.7145    2.0625    0.0000 C   0  0  0  0  0  0  0  0  0  0  0  0
    0.7145    1.2375    0.0000 C   0  0  0  0  0  0  0  0  0  0  0  0
    1.4289    0.8250    0.0000 C   0  0  0  0  0  0  0  0  0  0  0  0
    1.4289   -0.0000    0.0000 C   0  0  0  0  0  0  0  0  0  0  0  0
    0.7145   -0.4125    0.0000 C   0  0  0  0  0  0  0  0  0  0  0  0
    0.0000    0.0000    0.0000 C   0  0  0  0  0  0  0  0  0  0  0  0
   -0.7145   -0.4125    0.0000 N   0  3  0  0  0  0  0  0  0  0  0  0
   -0.7145   -1.2375    0.0000 O   0  0  0  0  0  0  0  0  0  0  0  0
   -1.4289    0.0000    0.0000 O   0  5  0  0  0  0  0  0  0  0  0  0
    0.0000    0.8250    0.0000 C   0  0  0  0  0  0  0  0  0  0  0  0
   -0.7145    1.2375    0.0000 N   0  3  0  0  0  0  0  0  0  0  0  0
   -0.7145    2.0625    0.0000 O   0  0  0  0  0  0  0  0  0  0  0  0
   -1.4289    0.8250    0.0000 O   0  5  0  0  0  0  0  0  0  0  0  0
  1  2  1  0  0  0  0
  2  3  4  0  0  0  0
  3  4  4  0  0  0  0
  4  5  4  0  0  0  0
  5  6  4  0  0  0  0
  6  7  1  0  0  0  0
  7  8  2  0  0  0  0
  7  9  1  0  0  0  0
  6 10  4  0  0  0  0
  2 10  4  0  0  0  0
 10 11  1  0  0  0  0
 11 12  2  0  0  0  0
 11 13  1  0  0  0  0
M  CHG  4   7   1   9  -1  11   1  13  -1
M  END
> <activity>
58.0

> <InChiKey>
DYSXLQBUUOPLBB-UHFFFAOYSA-N

$$$$

  Mrv2220 08292413132D          

 25 27  0  0  0  0            999 V2000
    4.3974   -2.8875    0.0000 C   0  0  0  0  0  0  0  0  0  0  0  0
    3.5724   -2.8875    0.0000 C   0  0  0  0  0  0  0  0  0  0  0  0
    2.7474   -2.8875    0.0000 C   0  0  0  0  0  0  0  0  0  0  0  0
    3.5724   -3.7125    0.0000 C   0  0  0  0  0  0  0  0  0  0  0  0
    4.2868   -4.1250    0.0000 C   0  0  0  0  0  0  0  0  0  0  0  0
    4.2868   -4.9500    0.0000 C   0  0  0  0  0  0  0  0  0  0  0  0
    3.5724   -5.3625    0.0000 C   0  0  0  0  0  0  0  0  0  0  0  0
    2.8579   -4.9500    0.0000 C   0  0  0  0  0  0  0  0  0  0  0  0
    2.8579   -4.1250    0.0000 C   0  0  0  0  0  0  0  0  0  0  0  0
    3.5724   -2.0625    0.0000 C   0  0  0  0  0  0  0  0  0  0  0  0
    2.8579   -1.6500    0.0000 C   0  0  0  0  0  0  0  0  0  0  0  0
    2.8579   -0.8250    0.0000 C   0  0  0  0  0  0  0  0  0  0  0  0
    3.5724   -0.4125    0.0000 C   0  0  0  0  0  0  0  0  0  0  0  0
    3.5724    0.4125    0.0000 O   0  0  0  0  0  0  0  0  0  0  0  0
    4.2868   -0.8250    0.0000 C   0  0  0  0  0  0  0  0  0  0  0  0
    5.0013   -0.4125    0.0000 C   0  0  0  0  0  0  0  0  0  0  0  0
    5.4138   -1.1270    0.0000 C   0  0  0  0  0  0  0  0  0  0  0  0
    4.5888    0.3020    0.0000 C   0  0  0  0  0  0  0  0  0  0  0  0
    5.7158    0.0000    0.0000 C   0  0  0  0  0  0  0  0  0  0  0  0
    5.7158    0.8250    0.0000 C   0  0  0  0  0  0  0  0  0  0  0  0
    6.4302    1.2375    0.0000 C   0  0  0  0  0  0  0  0  0  0  0  0
    7.1447    0.8250    0.0000 C   0  0  0  0  0  0  0  0  0  0  0  0
    7.1447    0.0000    0.0000 C   0  0  0  0  0  0  0  0  0  0  0  0
    6.4302   -0.4125    0.0000 C   0  0  0  0  0  0  0  0  0  0  0  0
    4.2868   -1.6500    0.0000 C   0  0  0  0  0  0  0  0  0  0  0  0
  1  2  1  0  0  0  0
  2  3  1  0  0  0  0
  2  4  1  0  0  0  0
  4  5  4  0  0  0  0
  5  6  4  0  0  0  0
  6  7  4  0  0  0  0
  7  8  4  0  0  0  0
  8  9  4  0  0  0  0
  4  9  4  0  0  0  0
  2 10  1  0  0  0  0
 10 11  4  0  0  0  0
 11 12  4  0  0  0  0
 12 13  4  0  0  0  0
 13 14  1  0  0  0  0
 13 15  4  0  0  0  0
 15 16  1  0  0  0  0
 16 17  1  0  0  0  0
 16 18  1  0  0  0  0
 16 19  1  0  0  0  0
 19 20  4  0  0  0  0
 20 21  4  0  0  0  0
 21 22  4  0  0  0  0
 22 23  4  0  0  0  0
 23 24  4  0  0  0  0
 19 24  4  0  0  0  0
 15 25  4  0  0  0  0
 10 25  4  0  0  0  0
M  END
> <activity>
97.6

> <InChiKey>
FMUYQRFTLHAARI-UHFFFAOYSA-N

$$$$

  Mrv2220 08292413132D          

 15 15  0  0  0  0            999 V2000
    1.4289    3.3000    0.0000 C   0  0  0  0  0  0  0  0  0  0  0  0
    1.4289    2.4750    0.0000 C   0  0  0  0  0  0  0  0  0  0  0  0
    2.1434    2.0625    0.0000 C   0  0  0  0  0  0  0  0  0  0  0  0
    0.7145    2.0625    0.0000 N   0  0  0  0  0  0  0  0  0  0  0  0
    0.7145    1.2375    0.0000 C   0  0  0  0  0  0  0  0  0  0  0  0
    1.4289    0.8250    0.0000 N   0  0  0  0  0  0  0  0  0  0  0  0
    1.4289   -0.0000    0.0000 C   0  0  0  0  0  0  0  0  0  0  0  0
    2.1434   -0.4125    0.0000 Cl  0  0  0  0  0  0  0  0  0  0  0  0
    0.7145   -0.4125    0.0000 N   0  0  0  0  0  0  0  0  0  0  0  0
    0.0000    0.0000    0.0000 C   0  0  0  0  0  0  0  0  0  0  0  0
   -0.7145   -0.4125    0.0000 N   0  0  0  0  0  0  0  0  0  0  0  0
   -1.4289    0.0000    0.0000 C   0  0  0  0  0  0  0  0  0  0  0  0
   -2.1434   -0.4125    0.0000 C   0  0  0  0  0  0  0  0  0  0  0  0
   -1.4289    0.8250    0.0000 C   0  0  0  0  0  0  0  0  0  0  0  0
    0.0000    0.8250    0.0000 N   0  0  0  0  0  0  0  0  0  0  0  0
  1  2  1  0  0  0  0
  2  3  1  0  0  0  0
  2  4  1  0  0  0  0
  4  5  1  0  0  0  0
  5  6  4  0  0  0  0
  6  7  4  0  0  0  0
  7  8  1  0  0  0  0
  7  9  4  0  0  0  0
  9 10  4  0  0  0  0
 10 11  1  0  0  0  0
 11 12  1  0  0  0  0
 12 13  1  0  0  0  0
 12 14  1  0  0  0  0
 10 15  4  0  0  0  0
  5 15  4  0  0  0  0
M  END
> <activity>
30.1

> <InChiKey>
WJNRPILHGGKWCK-UHFFFAOYSA-N

$$$$

  Mrv2220 08292413132D          

 20 20  0  0  0  0            999 V2000
    2.1434   -6.1875    0.0000 C   0  0  0  0  0  0  0  0  0  0  0  0
    2.8579   -6.6000    0.0000 C   0  0  0  0  0  0  0  0  0  0  0  0
    3.5724   -6.1875    0.0000 C   0  0  0  0  0  0  0  0  0  0  0  0
    4.2868   -6.6000    0.0000 C   0  0  0  0  0  0  0  0  0  0  0  0
    5.0013   -6.1875    0.0000 O   0  0  0  0  0  0  0  0  0  0  0  0
    5.7158   -6.6000    0.0000 C   0  0  0  0  0  0  0  0  0  0  0  0
    6.4302   -6.1875    0.0000 C   0  0  0  0  0  0  0  0  0  0  0  0
    7.1447   -6.6000    0.0000 O   0  0  0  0  0  0  0  0  0  0  0  0
    7.8592   -6.1875    0.0000 C   0  0  0  0  0  0  0  0  0  0  0  0
    7.8592   -5.3625    0.0000 O   0  0  0  0  0  0  0  0  0  0  0  0
    8.5737   -6.6000    0.0000 C   0  0  0  0  0  0  0  0  0  0  0  0
    9.2881   -6.1875    0.0000 O   0  0  0  0  0  0  0  0  0  0  0  0
   10.0026   -6.6000    0.0000 C   0  0  0  0  0  0  0  0  0  0  0  0
   10.7171   -6.1875    0.0000 C   0  0  0  0  0  0  0  0  0  0  0  0
   11.4315   -6.6000    0.0000 C   0  0  0  0  0  0  0  0  0  0  0  0
   11.4315   -7.4250    0.0000 C   0  0  0  0  0  0  0  0  0  0  0  0
   12.1460   -7.8375    0.0000 Cl  0  0  0  0  0  0  0  0  0  0  0  0
   10.7171   -7.8375    0.0000 C   0  0  0  0  0  0  0  0  0  0  0  0
   10.0026   -7.4250    0.0000 C   0  0  0  0  0  0  0  0  0  0  0  0
    9.2881   -7.8375    0.0000 Cl  0  0  0  0  0  0  0  0  0  0  0  0
  1  2  1  0  0  0  0
  2  3  1  0  0  0  0
  3  4  1  0  0  0  0
  4  5  1  0  0  0  0
  5  6  1  0  0  0  0
  6  7  1  0  0  0  0
  7  8  1  0  0  0  0
  8  9  1  0  0  0  0
  9 10  2  0  0  0  0
  9 11  1  0  0  0  0
 11 12  1  0  0  0  0
 12 13  1  0  0  0  0
 13 14  4  0  0  0  0
 14 15  4  0  0  0  0
 15 16  4  0  0  0  0
 16 17  1  0  0  0  0
 16 18  4  0  0  0  0
 18 19  4  0  0  0  0
 13 19  4  0  0  0  0
 19 20  1  0  0  0  0
M  END
> <activity>
71.8

> <InChiKey>
ZMWGIGHRZQTQRE-UHFFFAOYSA-N

$$$$

  Mrv2220 08292413132D          

 15 15  0  0  0  0            999 V2000
    1.4289   -4.1250    0.0000 O   0  0  0  0  0  0  0  0  0  0  0  0
    2.1434   -3.7125    0.0000 C   0  0  0  0  0  0  0  0  0  0  0  0
    2.1434   -2.8875    0.0000 O   0  0  0  0  0  0  0  0  0  0  0  0
    2.8579   -4.1250    0.0000 C   0  0  0  0  0  0  0  0  0  0  0  0
    3.5724   -3.7125    0.0000 C   0  0  0  0  0  0  0  0  0  0  0  0
    4.2868   -4.1250    0.0000 C   0  0  0  0  0  0  0  0  0  0  0  0
    5.0013   -3.7125    0.0000 O   0  0  0  0  0  0  0  0  0  0  0  0
    5.7158   -4.1250    0.0000 C   0  0  0  0  0  0  0  0  0  0  0  0
    6.4302   -3.7125    0.0000 C   0  0  0  0  0  0  0  0  0  0  0  0
    7.1447   -4.1250    0.0000 C   0  0  0  0  0  0  0  0  0  0  0  0
    7.1447   -4.9500    0.0000 C   0  0  0  0  0  0  0  0  0  0  0  0
    7.8592   -5.3625    0.0000 Cl  0  0  0  0  0  0  0  0  0  0  0  0
    6.4302   -5.3625    0.0000 C   0  0  0  0  0  0  0  0  0  0  0  0
    5.7158   -4.9500    0.0000 C   0  0  0  0  0  0  0  0  0  0  0  0
    5.0013   -5.3625    0.0000 Cl  0  0  0  0  0  0  0  0  0  0  0  0
  1  2  2  0  0  0  0
  2  3  1  0  0  0  0
  2  4  1  0  0  0  0
  4  5  1  0  0  0  0
  5  6  1  0  0  0  0
  6  7  1  0  0  0  0
  7  8  1  0  0  0  0
  8  9  4  0  0  0  0
  9 10  4  0  0  0  0
 10 11  4  0  0  0  0
 11 12  1  0  0  0  0
 11 13  4  0  0  0  0
 13 14  4  0  0  0  0
  8 14  4  0  0  0  0
 14 15  1  0  0  0  0
M  END
> <activity>
99.4

> <InChiKey>
YIVXMZJTEQBPQO-UHFFFAOYSA-N

$$$$

  Mrv2220 08292413132D          

 16 17  0  0  0  0            999 V2000
    1.4289    0.0000    0.0000 O   0  0  0  0  0  0  0  0  0  0  0  0
    2.1434   -0.4125    0.0000 C   0  0  0  0  0  0  0  0  0  0  0  0
    2.1434   -1.2375    0.0000 C   0  0  0  0  0  0  0  0  0  0  0  0
    2.8579   -1.6500    0.0000 C   0  0  0  0  0  0  0  0  0  0  0  0
    2.8579   -2.4750    0.0000 C   0  0  0  0  0  0  0  0  0  0  0  0
    2.1434   -2.8875    0.0000 C   0  0  0  0  0  0  0  0  0  0  0  0
    1.4289   -2.4750    0.0000 C   0  0  0  0  0  0  0  0  0  0  0  0
    1.4289   -1.6500    0.0000 C   0  0  0  0  0  0  0  0  0  0  0  0
    2.8579    0.0000    0.0000 C   0  0  0  0  0  0  0  0  0  0  0  0
    2.8579    0.8250    0.0000 C   0  0  0  0  0  0  0  0  0  0  0  0
    3.5724    1.2375    0.0000 C   0  0  0  0  0  0  0  0  0  0  0  0
    4.2868    0.8250    0.0000 C   0  0  0  0  0  0  0  0  0  0  0  0
    5.0013    1.2375    0.0000 O   0  0  0  0  0  0  0  0  0  0  0  0
    4.2868    0.0000    0.0000 C   0  0  0  0  0  0  0  0  0  0  0  0
    3.5724   -0.4125    0.0000 C   0  0  0  0  0  0  0  0  0  0  0  0
    3.5724   -1.2375    0.0000 O   0  0  0  0  0  0  0  0  0  0  0  0
  1  2  2  0  0  0  0
  2  3  1  0  0  0  0
  3  4  4  0  0  0  0
  4  5  4  0  0  0  0
  5  6  4  0  0  0  0
  6  7  4  0  0  0  0
  7  8  4  0  0  0  0
  3  8  4  0  0  0  0
  2  9  1  0  0  0  0
  9 10  4  0  0  0  0
 10 11  4  0  0  0  0
 11 12  4  0  0  0  0
 12 13  1  0  0  0  0
 12 14  4  0  0  0  0
 14 15  4  0  0  0  0
  9 15  4  0  0  0  0
 15 16  1  0  0  0  0
M  END
> <activity>
107.0

> <InChiKey>
ZXDDPOHVAMWLBH-UHFFFAOYSA-N

$$$$

  Mrv2220 08292413132D          

 13 13  0  0  0  0            999 V2000
    0.0000    2.4750    0.0000 O   0  0  0  0  0  0  0  0  0  0  0  0
    0.7145    2.0625    0.0000 N   0  3  0  0  0  0  0  0  0  0  0  0
    1.4289    2.4750    0.0000 O   0  5  0  0  0  0  0  0  0  0  0  0
    0.7145    1.2375    0.0000 C   0  0  0  0  0  0  0  0  0  0  0  0
    1.4289    0.8250    0.0000 C   0  0  0  0  0  0  0  0  0  0  0  0
    1.4289   -0.0000    0.0000 C   0  0  0  0  0  0  0  0  0  0  0  0
    0.7145   -0.4125    0.0000 C   0  0  0  0  0  0  0  0  0  0  0  0
    0.7145   -1.2375    0.0000 O   0  0  0  0  0  0  0  0  0  0  0  0
    0.0000    0.0000    0.0000 C   0  0  0  0  0  0  0  0  0  0  0  0
   -0.7145   -0.4125    0.0000 N   0  3  0  0  0  0  0  0  0  0  0  0
   -1.4289    0.0000    0.0000 O   0  0  0  0  0  0  0  0  0  0  0  0
   -0.7145   -1.2375    0.0000 O   0  5  0  0  0  0  0  0  0  0  0  0
    0.0000    0.8250    0.0000 C   0  0  0  0  0  0  0  0  0  0  0  0
  1  2  2  0  0  0  0
  2  3  1  0  0  0  0
  2  4  1  0  0  0  0
  4  5  4  0  0  0  0
  5  6  4  0  0  0  0
  6  7  4  0  0  0  0
  7  8  1  0  0  0  0
  7  9  4  0  0  0  0
  9 10  1  0  0  0  0
 10 11  2  0  0  0  0
 10 12  1  0  0  0  0
  9 13  4  0  0  0  0
  4 13  4  0  0  0  0
M  CHG  4   2   1   3  -1  10   1  12  -1
M  END
> <activity>
108.4

> <InChiKey>
UFBJCMHMOXMLKC-UHFFFAOYSA-N

$$$$

  Mrv2220 08292413132D          

 13 13  0  0  0  0            999 V2000
    0.7145    2.0625    0.0000 C   0  0  0  0  0  0  0  0  0  0  0  0
    0.7145    1.2375    0.0000 C   0  0  0  0  0  0  0  0  0  0  0  0
    1.4289    0.8250    0.0000 C   0  0  0  0  0  0  0  0  0  0  0  0
    1.4289   -0.0000    0.0000 C   0  0  0  0  0  0  0  0  0  0  0  0
    0.7145   -0.4125    0.0000 C   0  0  0  0  0  0  0  0  0  0  0  0
    0.7145   -1.2375    0.0000 N   0  3  0  0  0  0  0  0  0  0  0  0
    1.4289   -1.6500    0.0000 O   0  0  0  0  0  0  0  0  0  0  0  0
   -0.0000   -1.6500    0.0000 O   0  5  0  0  0  0  0  0  0  0  0  0
    0.0000    0.0000    0.0000 C   0  0  0  0  0  0  0  0  0  0  0  0
    0.0000    0.8250    0.0000 C   0  0  0  0  0  0  0  0  0  0  0  0
   -0.7145    1.2375    0.0000 N   0  3  0  0  0  0  0  0  0  0  0  0
   -0.7145    2.0625    0.0000 O   0  0  0  0  0  0  0  0  0  0  0  0
   -1.4289    0.8250    0.0000 O   0  5  0  0  0  0  0  0  0  0  0  0
  1  2  1  0  0  0  0
  2  3  4  0  0  0  0
  3  4  4  0  0  0  0
  4  5  4  0  0  0  0
  5  6  1  0  0  0  0
  6  7  2  0  0  0  0
  6  8  1  0  0  0  0
  5  9  4  0  0  0  0
  9 10  4  0  0  0  0
  2 10  4  0  0  0  0
 10 11  1  0  0  0  0
 11 12  2  0  0  0  0
 11 13  1  0  0  0  0
M  CHG  4   6   1   8  -1  11   1  13  -1
M  END
> <activity>
74.7

> <InChiKey>
RMBFBMJGBANMMK-UHFFFAOYSA-N

$$$$

  Mrv2220 08292413132D          

 10 10  0  0  0  0            999 V2000
    0.7145    2.0625    0.0000 O   0  0  0  0  0  0  0  0  0  0  0  0
    0.7145    1.2375    0.0000 C   0  0  0  0  0  0  0  0  0  0  0  0
    1.4289    0.8250    0.0000 C   0  0  0  0  0  0  0  0  0  0  0  0
    1.4289   -0.0000    0.0000 C   0  0  0  0  0  0  0  0  0  0  0  0
    2.1434   -0.4125    0.0000 Cl  0  0  0  0  0  0  0  0  0  0  0  0
    0.7145   -0.4125    0.0000 C   0  0  0  0  0  0  0  0  0  0  0  0
    0.7145   -1.2375    0.0000 Cl  0  0  0  0  0  0  0  0  0  0  0  0
    0.0000    0.0000    0.0000 C   0  0  0  0  0  0  0  0  0  0  0  0
    0.0000    0.8250    0.0000 C   0  0  0  0  0  0  0  0  0  0  0  0
   -0.7145    1.2375    0.0000 Cl  0  0  0  0  0  0  0  0  0  0  0  0
  1  2  1  0  0  0  0
  2  3  4  0  0  0  0
  3  4  4  0  0  0  0
  4  5  1  0  0  0  0
  4  6  4  0  0  0  0
  6  7  1  0  0  0  0
  6  8  4  0  0  0  0
  8  9  4  0  0  0  0
  2  9  4  0  0  0  0
  9 10  1  0  0  0  0
M  END
> <activity>
103.4

> <InChiKey>
LHJGJYXLEPZJPM-UHFFFAOYSA-N

$$$$

  Mrv2220 08292413132D          

 14 14  0  0  0  0            999 V2000
   -0.7145    3.7125    0.0000 O   0  0  0  0  0  0  0  0  0  0  0  0
    0.0000    3.3000    0.0000 C   0  0  0  0  0  0  0  0  0  0  0  0
    0.7145    3.7125    0.0000 O   0  0  0  0  0  0  0  0  0  0  0  0
    0.0000    2.4750    0.0000 C   0  0  0  0  0  0  0  0  0  0  0  0
    0.7145    2.0625    0.0000 O   0  0  0  0  0  0  0  0  0  0  0  0
    0.7145    1.2375    0.0000 C   0  0  0  0  0  0  0  0  0  0  0  0
    1.4289    0.8250    0.0000 C   0  0  0  0  0  0  0  0  0  0  0  0
    1.4289   -0.0000    0.0000 C   0  0  0  0  0  0  0  0  0  0  0  0
    2.1434   -0.4125    0.0000 Cl  0  0  0  0  0  0  0  0  0  0  0  0
    0.7145   -0.4125    0.0000 C   0  0  0  0  0  0  0  0  0  0  0  0
    0.7145   -1.2375    0.0000 Cl  0  0  0  0  0  0  0  0  0  0  0  0
    0.0000    0.0000    0.0000 C   0  0  0  0  0  0  0  0  0  0  0  0
    0.0000    0.8250    0.0000 C   0  0  0  0  0  0  0  0  0  0  0  0
   -0.7145    1.2375    0.0000 Cl  0  0  0  0  0  0  0  0  0  0  0  0
  1  2  2  0  0  0  0
  2  3  1  0  0  0  0
  2  4  1  0  0  0  0
  4  5  1  0  0  0  0
  5  6  1  0  0  0  0
  6  7  4  0  0  0  0
  7  8  4  0  0  0  0
  8  9  1  0  0  0  0
  8 10  4  0  0  0  0
 10 11  1  0  0  0  0
 10 12  4  0  0  0  0
 12 13  4  0  0  0  0
  6 13  4  0  0  0  0
 13 14  1  0  0  0  0
M  END
> <activity>
97.1

> <InChiKey>
SMYMJHWAQXWPDB-UHFFFAOYSA-N

$$$$

  Mrv2220 08292413132D          

 10 10  0  0  0  0            999 V2000
    0.7145    2.0625    0.0000 O   0  0  0  0  0  0  0  0  0  0  0  0
    0.7145    1.2375    0.0000 C   0  0  0  0  0  0  0  0  0  0  0  0
    1.4289    0.8250    0.0000 C   0  0  0  0  0  0  0  0  0  0  0  0
    2.1434    1.2375    0.0000 Br  0  0  0  0  0  0  0  0  0  0  0  0
    1.4289   -0.0000    0.0000 C   0  0  0  0  0  0  0  0  0  0  0  0
    0.7145   -0.4125    0.0000 C   0  0  0  0  0  0  0  0  0  0  0  0
    0.7145   -1.2375    0.0000 Br  0  0  0  0  0  0  0  0  0  0  0  0
    0.0000    0.0000    0.0000 C   0  0  0  0  0  0  0  0  0  0  0  0
    0.0000    0.8250    0.0000 C   0  0  0  0  0  0  0  0  0  0  0  0
   -0.7145    1.2375    0.0000 Br  0  0  0  0  0  0  0  0  0  0  0  0
  1  2  1  0  0  0  0
  2  3  4  0  0  0  0
  3  4  1  0  0  0  0
  3  5  4  0  0  0  0
  5  6  4  0  0  0  0
  6  7  1  0  0  0  0
  6  8  4  0  0  0  0
  8  9  4  0  0  0  0
  2  9  4  0  0  0  0
  9 10  1  0  0  0  0
M  END
> <activity>
105.0

> <InChiKey>
BSWWXRFVMJHFBN-UHFFFAOYSA-N

$$$$

  Mrv2220 08292413132D          

 10 10  0  0  0  0            999 V2000
    0.7145    2.0625    0.0000 O   0  0  0  0  0  0  0  0  0  0  0  0
    0.7145    1.2375    0.0000 C   0  0  0  0  0  0  0  0  0  0  0  0
    1.4289    0.8250    0.0000 C   0  0  0  0  0  0  0  0  0  0  0  0
    2.1434    1.2375    0.0000 Cl  0  0  0  0  0  0  0  0  0  0  0  0
    1.4289   -0.0000    0.0000 C   0  0  0  0  0  0  0  0  0  0  0  0
    0.7145   -0.4125    0.0000 C   0  0  0  0  0  0  0  0  0  0  0  0
    0.7145   -1.2375    0.0000 Cl  0  0  0  0  0  0  0  0  0  0  0  0
    0.0000    0.0000    0.0000 C   0  0  0  0  0  0  0  0  0  0  0  0
    0.0000    0.8250    0.0000 C   0  0  0  0  0  0  0  0  0  0  0  0
   -0.7145    1.2375    0.0000 Cl  0  0  0  0  0  0  0  0  0  0  0  0
  1  2  1  0  0  0  0
  2  3  4  0  0  0  0
  3  4  1  0  0  0  0
  3  5  4  0  0  0  0
  5  6  4  0  0  0  0
  6  7  1  0  0  0  0
  6  8  4  0  0  0  0
  8  9  4  0  0  0  0
  2  9  4  0  0  0  0
  9 10  1  0  0  0  0
M  END
> <activity>
100.0

> <InChiKey>
LINPIYWFGCPVIE-UHFFFAOYSA-N

$$$$

  Mrv2220 08292413132D          

 12 12  0  0  0  0            999 V2000
    0.7145    2.0625    0.0000 C   0  0  0  0  0  0  0  0  0  0  0  0
    0.7145    1.2375    0.0000 C   0  0  0  0  0  0  0  0  0  0  0  0
    1.4289    0.8250    0.0000 C   0  0  0  0  0  0  0  0  0  0  0  0
    1.4289   -0.0000    0.0000 C   0  0  0  0  0  0  0  0  0  0  0  0
    2.1434   -0.4125    0.0000 C   0  0  0  0  0  0  0  0  0  0  0  0
    0.7145   -0.4125    0.0000 C   0  0  0  0  0  0  0  0  0  0  0  0
    0.7145   -1.2375    0.0000 C   0  0  0  0  0  0  0  0  0  0  0  0
    1.4289   -1.6500    0.0000 O   0  0  0  0  0  0  0  0  0  0  0  0
   -0.0000   -1.6500    0.0000 O   0  0  0  0  0  0  0  0  0  0  0  0
    0.0000    0.0000    0.0000 C   0  0  0  0  0  0  0  0  0  0  0  0
   -0.7145   -0.4125    0.0000 C   0  0  0  0  0  0  0  0  0  0  0  0
    0.0000    0.8250    0.0000 C   0  0  0  0  0  0  0  0  0  0  0  0
  1  2  1  0  0  0  0
  2  3  4  0  0  0  0
  3  4  4  0  0  0  0
  4  5  1  0  0  0  0
  4  6  4  0  0  0  0
  6  7  1  0  0  0  0
  7  8  2  0  0  0  0
  7  9  1  0  0  0  0
  6 10  4  0  0  0  0
 10 11  1  0  0  0  0
 10 12  4  0  0  0  0
  2 12  4  0  0  0  0
M  END
> <activity>
35.7

> <InChiKey>
FFFIRKXTFQCCKJ-UHFFFAOYSA-N

$$$$

  Mrv2220 08292413132D          

 10 10  0  0  0  0            999 V2000
    0.7145    2.0625    0.0000 C   0  0  0  0  0  0  0  0  0  0  0  0
    0.7145    1.2375    0.0000 C   0  0  0  0  0  0  0  0  0  0  0  0
    1.4289    0.8250    0.0000 C   0  0  0  0  0  0  0  0  0  0  0  0
    1.4289   -0.0000    0.0000 C   0  0  0  0  0  0  0  0  0  0  0  0
    2.1434   -0.4125    0.0000 C   0  0  0  0  0  0  0  0  0  0  0  0
    0.7145   -0.4125    0.0000 C   0  0  0  0  0  0  0  0  0  0  0  0
    0.7145   -1.2375    0.0000 O   0  0  0  0  0  0  0  0  0  0  0  0
    0.0000    0.0000    0.0000 C   0  0  0  0  0  0  0  0  0  0  0  0
   -0.7145   -0.4125    0.0000 C   0  0  0  0  0  0  0  0  0  0  0  0
    0.0000    0.8250    0.0000 C   0  0  0  0  0  0  0  0  0  0  0  0
  1  2  1  0  0  0  0
  2  3  4  0  0  0  0
  3  4  4  0  0  0  0
  4  5  1  0  0  0  0
  4  6  4  0  0  0  0
  6  7  1  0  0  0  0
  6  8  4  0  0  0  0
  8  9  1  0  0  0  0
  8 10  4  0  0  0  0
  2 10  4  0  0  0  0
M  END
> <activity>
81.7

> <InChiKey>
BPRYUXCVCCNUFE-UHFFFAOYSA-N

$$$$

  Mrv2220 08292413132D          

 18 18  0  0  0  0            999 V2000
   -0.7145    3.7125    0.0000 C   0  0  0  0  0  0  0  0  0  0  0  0
    0.0000    3.3000    0.0000 C   0  0  0  0  0  0  0  0  0  0  0  0
    0.0000    2.4750    0.0000 C   0  0  0  0  0  0  0  0  0  0  0  0
    0.7145    2.0625    0.0000 O   0  0  0  0  0  0  0  0  0  0  0  0
    0.7145    1.2375    0.0000 C   0  0  0  0  0  0  0  0  0  0  0  0
    1.4289    0.8250    0.0000 N   0  0  0  0  0  0  0  0  0  0  0  0
    1.4289   -0.0000    0.0000 C   0  0  0  0  0  0  0  0  0  0  0  0
    2.1434   -0.4125    0.0000 O   0  0  0  0  0  0  0  0  0  0  0  0
    2.8579   -0.0000    0.0000 C   0  0  0  0  0  0  0  0  0  0  0  0
    3.5724   -0.4125    0.0000 C   0  0  0  0  0  0  0  0  0  0  0  0
    4.2868   -0.0000    0.0000 C   0  0  0  0  0  0  0  0  0  0  0  0
    0.7145   -0.4125    0.0000 N   0  0  0  0  0  0  0  0  0  0  0  0
    0.0000    0.0000    0.0000 C   0  0  0  0  0  0  0  0  0  0  0  0
   -0.7145   -0.4125    0.0000 O   0  0  0  0  0  0  0  0  0  0  0  0
   -1.4289    0.0000    0.0000 C   0  0  0  0  0  0  0  0  0  0  0  0
   -2.1434   -0.4125    0.0000 C   0  0  0  0  0  0  0  0  0  0  0  0
   -2.8579    0.0000    0.0000 C   0  0  0  0  0  0  0  0  0  0  0  0
    0.0000    0.8250    0.0000 N   0  0  0  0  0  0  0  0  0  0  0  0
  1  2  2  0  0  0  0
  2  3  1  0  0  0  0
  3  4  1  0  0  0  0
  4  5  1  0  0  0  0
  5  6  4  0  0  0  0
  6  7  4  0  0  0  0
  7  8  1  0  0  0  0
  8  9  1  0  0  0  0
  9 10  1  0  0  0  0
 10 11  2  0  0  0  0
  7 12  4  0  0  0  0
 12 13  4  0  0  0  0
 13 14  1  0  0  0  0
 14 15  1  0  0  0  0
 15 16  1  0  0  0  0
 16 17  2  0  0  0  0
 13 18  4  0  0  0  0
  5 18  4  0  0  0  0
M  END
> <activity>
29.3

> <InChiKey>
BJELTSYBAHKXRW-UHFFFAOYSA-N

$$$$

  Mrv2220 08292413132D          

  9  9  0  0  0  0            999 V2000
    0.7145    2.0625    0.0000 O   0  0  0  0  0  0  0  0  0  0  0  0
    0.7145    1.2375    0.0000 C   0  0  0  0  0  0  0  0  0  0  0  0
    1.4289    0.8250    0.0000 C   0  0  0  0  0  0  0  0  0  0  0  0
    1.4289   -0.0000    0.0000 C   0  0  0  0  0  0  0  0  0  0  0  0
    2.1434   -0.4125    0.0000 Cl  0  0  0  0  0  0  0  0  0  0  0  0
    0.7145   -0.4125    0.0000 C   0  0  0  0  0  0  0  0  0  0  0  0
    0.0000    0.0000    0.0000 C   0  0  0  0  0  0  0  0  0  0  0  0
    0.0000    0.8250    0.0000 C   0  0  0  0  0  0  0  0  0  0  0  0
   -0.7145    1.2375    0.0000 Cl  0  0  0  0  0  0  0  0  0  0  0  0
  1  2  1  0  0  0  0
  2  3  4  0  0  0  0
  3  4  4  0  0  0  0
  4  5  1  0  0  0  0
  4  6  4  0  0  0  0
  6  7  4  0  0  0  0
  7  8  4  0  0  0  0
  2  8  4  0  0  0  0
  8  9  1  0  0  0  0
M  END
> <activity>
105.0

> <InChiKey>
RANCECPPZPIPNO-UHFFFAOYSA-N

$$$$

  Mrv2220 08292413132D          

 20 19  0  0  0  0            999 V2000
   -1.3184   -7.0125    0.0000 C   0  0  0  0  0  0  0  0  0  0  0  0
   -1.3184   -6.1875    0.0000 C   0  0  0  0  0  0  0  0  0  0  0  0
   -0.4934   -6.1875    0.0000 C   0  0  0  0  0  0  0  0  0  0  0  0
   -2.1434   -6.1875    0.0000 C   0  0  0  0  0  0  0  0  0  0  0  0
   -1.3184   -5.3625    0.0000 O   0  0  0  0  0  0  0  0  0  0  0  0
   -0.6039   -4.9500    0.0000 O   0  0  0  0  0  0  0  0  0  0  0  0
   -0.6039   -4.1250    0.0000 C   0  0  0  0  0  0  0  0  0  0  0  0
    0.2211   -4.1250    0.0000 C   0  0  0  0  0  0  0  0  0  0  0  0
   -1.4289   -4.1250    0.0000 C   0  0  0  0  0  0  0  0  0  0  0  0
   -0.6039   -3.3000    0.0000 C   0  0  0  0  0  0  0  0  0  0  0  0
    0.1105   -2.8875    0.0000 C   0  0  0  0  0  0  0  0  0  0  0  0
    0.1105   -2.0625    0.0000 C   0  0  0  0  0  0  0  0  0  0  0  0
    0.9355   -2.0625    0.0000 C   0  0  0  0  0  0  0  0  0  0  0  0
   -0.7145   -2.0625    0.0000 C   0  0  0  0  0  0  0  0  0  0  0  0
    0.1105   -1.2375    0.0000 O   0  0  0  0  0  0  0  0  0  0  0  0
    0.8250   -0.8250    0.0000 O   0  0  0  0  0  0  0  0  0  0  0  0
    0.8250    0.0000    0.0000 C   0  0  0  0  0  0  0  0  0  0  0  0
    0.8250    0.8250    0.0000 C   0  0  0  0  0  0  0  0  0  0  0  0
    1.6500   -0.0000    0.0000 C   0  0  0  0  0  0  0  0  0  0  0  0
    0.0000    0.0000    0.0000 C   0  0  0  0  0  0  0  0  0  0  0  0
  1  2  1  0  0  0  0
  2  3  1  0  0  0  0
  2  4  1  0  0  0  0
  2  5  1  0  0  0  0
  5  6  1  0  0  0  0
  6  7  1  0  0  0  0
  7  8  1  0  0  0  0
  7  9  1  0  0  0  0
  7 10  1  0  0  0  0
 10 11  1  0  0  0  0
 11 12  1  0  0  0  0
 12 13  1  0  0  0  0
 12 14  1  0  0  0  0
 12 15  1  0  0  0  0
 15 16  1  0  0  0  0
 16 17  1  0  0  0  0
 17 18  1  0  0  0  0
 17 19  1  0  0  0  0
 17 20  1  0  0  0  0
M  END
> <activity>
10.0

> <InChiKey>
DMWVYCCGCQPJEA-UHFFFAOYSA-N

$$$$

  Mrv2220 08292413132D          

 15 15  0  0  0  0            999 V2000
    0.7145    2.8875    0.0000 C   0  0  0  0  0  0  0  0  0  0  0  0
    0.7145    2.0625    0.0000 C   0  0  0  0  0  0  0  0  0  0  0  0
   -0.1105    2.0625    0.0000 C   0  0  0  0  0  0  0  0  0  0  0  0
    1.5395    2.0625    0.0000 C   0  0  0  0  0  0  0  0  0  0  0  0
    0.7145    1.2375    0.0000 C   0  0  0  0  0  0  0  0  0  0  0  0
    1.4289    0.8250    0.0000 C   0  0  0  0  0  0  0  0  0  0  0  0
    1.4289   -0.0000    0.0000 C   0  0  0  0  0  0  0  0  0  0  0  0
    0.7145   -0.4125    0.0000 C   0  0  0  0  0  0  0  0  0  0  0  0
    0.0000    0.0000    0.0000 C   0  0  0  0  0  0  0  0  0  0  0  0
   -0.7145   -0.4125    0.0000 C   0  0  0  0  0  0  0  0  0  0  0  0
   -1.4289   -0.8250    0.0000 C   0  0  0  0  0  0  0  0  0  0  0  0
   -1.1270    0.3020    0.0000 C   0  0  0  0  0  0  0  0  0  0  0  0
   -0.3020   -1.1270    0.0000 C   0  0  0  0  0  0  0  0  0  0  0  0
    0.0000    0.8250    0.0000 C   0  0  0  0  0  0  0  0  0  0  0  0
   -0.7145    1.2375    0.0000 O   0  0  0  0  0  0  0  0  0  0  0  0
  1  2  1  0  0  0  0
  2  3  1  0  0  0  0
  2  4  1  0  0  0  0
  2  5  1  0  0  0  0
  5  6  4  0  0  0  0
  6  7  4  0  0  0  0
  7  8  4  0  0  0  0
  8  9  4  0  0  0  0
  9 10  1  0  0  0  0
 10 11  1  0  0  0  0
 10 12  1  0  0  0  0
 10 13  1  0  0  0  0
  9 14  4  0  0  0  0
  5 14  4  0  0  0  0
 14 15  1  0  0  0  0
M  END
> <activity>
30.0

> <InChiKey>
DKCPKDPYUFEZCP-UHFFFAOYSA-N

$$$$

  Mrv2220 08292413132D          

 10 10  0  0  0  0            999 V2000
    0.7145    2.8875    0.0000 N   0  0  0  0  0  0  0  0  0  0  0  0
    0.7145    2.0625    0.0000 C   0  0  0  0  0  0  0  0  0  0  0  0
    0.7145    1.2375    0.0000 C   0  0  0  0  0  0  0  0  0  0  0  0
    1.4289    0.8250    0.0000 C   0  0  0  0  0  0  0  0  0  0  0  0
    2.1434    1.2375    0.0000 Cl  0  0  0  0  0  0  0  0  0  0  0  0
    1.4289   -0.0000    0.0000 C   0  0  0  0  0  0  0  0  0  0  0  0
    0.7145   -0.4125    0.0000 C   0  0  0  0  0  0  0  0  0  0  0  0
    0.0000    0.0000    0.0000 C   0  0  0  0  0  0  0  0  0  0  0  0
    0.0000    0.8250    0.0000 C   0  0  0  0  0  0  0  0  0  0  0  0
   -0.7145    1.2375    0.0000 Cl  0  0  0  0  0  0  0  0  0  0  0  0
  1  2  3  0  0  0  0
  2  3  1  0  0  0  0
  3  4  4  0  0  0  0
  4  5  1  0  0  0  0
  4  6  4  0  0  0  0
  6  7  4  0  0  0  0
  7  8  4  0  0  0  0
  8  9  4  0  0  0  0
  3  9  4  0  0  0  0
  9 10  1  0  0  0  0
M  END
> <activity>
77.7

> <InChiKey>
YOYAIZYFCNQIRF-UHFFFAOYSA-N

$$$$

  Mrv2220 08292413132D          

 11 11  0  0  0  0            999 V2000
    1.4289    2.4750    0.0000 C   0  0  0  0  0  0  0  0  0  0  0  0
    0.7145    2.0625    0.0000 C   0  0  0  0  0  0  0  0  0  0  0  0
    0.7145    1.2375    0.0000 C   0  0  0  0  0  0  0  0  0  0  0  0
    1.4289    0.8250    0.0000 C   0  0  0  0  0  0  0  0  0  0  0  0
    1.4289   -0.0000    0.0000 C   0  0  0  0  0  0  0  0  0  0  0  0
    0.7145   -0.4125    0.0000 C   0  0  0  0  0  0  0  0  0  0  0  0
    0.0000    0.0000    0.0000 C   0  0  0  0  0  0  0  0  0  0  0  0
   -0.7145   -0.4125    0.0000 C   0  0  0  0  0  0  0  0  0  0  0  0
   -0.7145   -1.2375    0.0000 C   0  0  0  0  0  0  0  0  0  0  0  0
    0.0000    0.8250    0.0000 C   0  0  0  0  0  0  0  0  0  0  0  0
   -0.7145    1.2375    0.0000 N   0  0  0  0  0  0  0  0  0  0  0  0
  1  2  1  0  0  0  0
  2  3  1  0  0  0  0
  3  4  4  0  0  0  0
  4  5  4  0  0  0  0
  5  6  4  0  0  0  0
  6  7  4  0  0  0  0
  7  8  1  0  0  0  0
  8  9  1  0  0  0  0
  7 10  4  0  0  0  0
  3 10  4  0  0  0  0
 10 11  1  0  0  0  0
M  END
> <activity>
16.2

> <InChiKey>
FOYHNROGBXVLLX-UHFFFAOYSA-N

$$$$

  Mrv2220 08292413132D          

  7  6  0  0  0  0            999 V2000
   -0.1914    0.7145    0.0000 C   0  0  0  0  0  0  0  0  0  0  0  0
    0.5230    1.1270    0.0000 N   0  0  0  0  0  0  0  0  0  0  0  0
    0.5230    1.9520    0.0000 C   0  0  0  0  0  0  0  0  0  0  0  0
    1.2375    0.7145    0.0000 C   0  0  0  0  0  0  0  0  0  0  0  0
    1.9520    1.1270    0.0000 C   0  0  0  0  0  0  0  0  0  0  0  0
    2.6664    0.7145    0.0000 C   0  0  0  0  0  0  0  0  0  0  0  0
    3.3809    1.1270    0.0000 N   0  0  0  0  0  0  0  0  0  0  0  0
  1  2  1  0  0  0  0
  2  3  1  0  0  0  0
  2  4  1  0  0  0  0
  4  5  1  0  0  0  0
  5  6  1  0  0  0  0
  6  7  1  0  0  0  0
M  END
> <activity>
11.3

> <InChiKey>
IUNMPGNGSSIWFP-UHFFFAOYSA-N

$$$$

  Mrv2220 08292413132D          

 14 13  0  0  0  0            999 V2000
    2.2539    3.0789    0.0000 C   0  0  0  0  0  0  0  0  0  0  0  0
    1.5395    2.6664    0.0000 C   0  0  0  0  0  0  0  0  0  0  0  0
    1.5395    1.8414    0.0000 O   0  0  0  0  0  0  0  0  0  0  0  0
    0.8250    1.4289    0.0000 Si  0  0  0  0  0  0  0  0  0  0  0  0
    0.1105    1.0164    0.0000 C   0  0  0  0  0  0  0  0  0  0  0  0
   -0.6039    1.4289    0.0000 C   0  0  0  0  0  0  0  0  0  0  0  0
   -1.3184    1.0164    0.0000 C   0  0  0  0  0  0  0  0  0  0  0  0
   -1.3184    0.1914    0.0000 N   0  0  0  0  0  0  0  0  0  0  0  0
    0.4125    2.1434    0.0000 O   0  0  0  0  0  0  0  0  0  0  0  0
   -0.4125    2.1434    0.0000 C   0  0  0  0  0  0  0  0  0  0  0  0
   -0.8250    2.8579    0.0000 C   0  0  0  0  0  0  0  0  0  0  0  0
    1.2375    0.7145    0.0000 O   0  0  0  0  0  0  0  0  0  0  0  0
    0.8250    0.0000    0.0000 C   0  0  0  0  0  0  0  0  0  0  0  0
    0.0000    0.0000    0.0000 C   0  0  0  0  0  0  0  0  0  0  0  0
  1  2  1  0  0  0  0
  2  3  1  0  0  0  0
  3  4  1  0  0  0  0
  4  5  1  0  0  0  0
  5  6  1  0  0  0  0
  6  7  1  0  0  0  0
  7  8  1  0  0  0  0
  4  9  1  0  0  0  0
  9 10  1  0  0  0  0
 10 11  1  0  0  0  0
  4 12  1  0  0  0  0
 12 13  1  0  0  0  0
 13 14  1  0  0  0  0
M  END
> <activity>
-19.3

> <InChiKey>
WYTZZXDRDKSJID-UHFFFAOYSA-N

$$$$

  Mrv2220 08292413132D          

  9  9  0  0  0  0            999 V2000
    0.0000    2.4750    0.0000 C   0  0  0  0  0  0  0  0  0  0  0  0
    0.7145    2.0625    0.0000 C   0  0  0  0  0  0  0  0  0  0  0  0
    0.7145    1.2375    0.0000 C   0  0  0  0  0  0  0  0  0  0  0  0
    1.4289    0.8250    0.0000 C   0  0  0  0  0  0  0  0  0  0  0  0
    1.4289   -0.0000    0.0000 C   0  0  0  0  0  0  0  0  0  0  0  0
    0.7145   -0.4125    0.0000 C   0  0  0  0  0  0  0  0  0  0  0  0
    0.0000    0.0000    0.0000 C   0  0  0  0  0  0  0  0  0  0  0  0
   -0.7145   -0.4125    0.0000 O   0  0  0  0  0  0  0  0  0  0  0  0
    0.0000    0.8250    0.0000 C   0  0  0  0  0  0  0  0  0  0  0  0
  1  2  1  0  0  0  0
  2  3  1  0  0  0  0
  3  4  4  0  0  0  0
  4  5  4  0  0  0  0
  5  6  4  0  0  0  0
  6  7  4  0  0  0  0
  7  8  1  0  0  0  0
  7  9  4  0  0  0  0
  3  9  4  0  0  0  0
M  END
> <activity>
59.3

> <InChiKey>
HMNKTRSOROOSPP-UHFFFAOYSA-N

$$$$

  Mrv2220 08292413132D          

 14 16  0  0  0  0            999 V2000
    4.2575   -0.8137    0.0000 O   0  0  0  0  0  0  0  0  0  0  0  0
    3.7054   -0.2006    0.0000 C   0  0  0  0  0  0  0  0  0  0  0  0
    3.9604    0.5840    0.0000 C   0  0  0  0  0  0  0  0  0  0  0  0
    3.4084    1.1971    0.0000 C   0  0  0  0  0  0  0  0  0  0  0  0
    2.6014    1.0256    0.0000 C   0  0  0  0  0  0  0  0  0  0  0  0
    2.3464    0.2410    0.0000 C   0  0  0  0  0  0  0  0  0  0  0  0
    2.8985   -0.3721    0.0000 C   0  0  0  0  0  0  0  0  0  0  0  0
    1.5214    0.2410    0.0000 C   0  0  0  0  0  0  0  0  0  0  0  0
    0.9694   -0.3721    0.0000 C   0  0  0  0  0  0  0  0  0  0  0  0
    0.1624   -0.2006    0.0000 C   0  0  0  0  0  0  0  0  0  0  0  0
   -0.0925    0.5840    0.0000 C   0  0  0  0  0  0  0  0  0  0  0  0
    0.4595    1.1971    0.0000 C   0  0  0  0  0  0  0  0  0  0  0  0
    1.2665    1.0256    0.0000 C   0  0  0  0  0  0  0  0  0  0  0  0
    1.9339    1.5105    0.0000 C   0  0  0  0  0  0  0  0  0  0  0  0
  1  2  1  0  0  0  0
  2  3  4  0  0  0  0
  3  4  4  0  0  0  0
  4  5  4  0  0  0  0
  5  6  4  0  0  0  0
  6  7  4  0  0  0  0
  2  7  4  0  0  0  0
  6  8  1  0  0  0  0
  8  9  4  0  0  0  0
  9 10  4  0  0  0  0
 10 11  4  0  0  0  0
 11 12  4  0  0  0  0
 12 13  4  0  0  0  0
  8 13  4  0  0  0  0
 13 14  1  0  0  0  0
  5 14  1  0  0  0  0
M  END
> <activity>
85.3

> <InChiKey>
PVUBSZGNXLNTLX-UHFFFAOYSA-N

$$$$

  Mrv2220 08292413132D          

 10 10  0  0  0  0            999 V2000
    0.0000    2.4750    0.0000 C   0  0  0  0  0  0  0  0  0  0  0  0
    0.7145    2.0625    0.0000 C   0  0  0  0  0  0  0  0  0  0  0  0
    1.4289    2.4750    0.0000 C   0  0  0  0  0  0  0  0  0  0  0  0
    0.7145    1.2375    0.0000 C   0  0  0  0  0  0  0  0  0  0  0  0
    1.4289    0.8250    0.0000 C   0  0  0  0  0  0  0  0  0  0  0  0
    1.4289   -0.0000    0.0000 C   0  0  0  0  0  0  0  0  0  0  0  0
    0.7145   -0.4125    0.0000 C   0  0  0  0  0  0  0  0  0  0  0  0
    0.0000    0.0000    0.0000 C   0  0  0  0  0  0  0  0  0  0  0  0
   -0.7145   -0.4125    0.0000 O   0  0  0  0  0  0  0  0  0  0  0  0
    0.0000    0.8250    0.0000 C   0  0  0  0  0  0  0  0  0  0  0  0
  1  2  1  0  0  0  0
  2  3  1  0  0  0  0
  2  4  1  0  0  0  0
  4  5  4  0  0  0  0
  5  6  4  0  0  0  0
  6  7  4  0  0  0  0
  7  8  4  0  0  0  0
  8  9  1  0  0  0  0
  8 10  4  0  0  0  0
  4 10  4  0  0  0  0
M  END
> <activity>
78.9

> <InChiKey>
VLJSLTNSFSOYQR-UHFFFAOYSA-N

$$$$

  Mrv2220 08292413132D          

  9  8  0  0  0  0            999 V2000
    1.7605    1.8414    0.0000 C   0  0  0  0  0  0  0  0  0  0  0  0
    2.4750    1.4289    0.0000 C   0  0  0  0  0  0  0  0  0  0  0  0
    2.4750    0.6039    0.0000 O   0  0  0  0  0  0  0  0  0  0  0  0
    3.1895    1.8414    0.0000 O   0  0  0  0  0  0  0  0  0  0  0  0
    3.9039    1.4289    0.0000 C   0  0  0  0  0  0  0  0  0  0  0  0
    4.6184    1.8414    0.0000 C   0  0  0  0  0  0  0  0  0  0  0  0
    5.3329    1.4289    0.0000 C   0  0  0  0  0  0  0  0  0  0  0  0
    6.0474    1.8414    0.0000 C   0  0  0  0  0  0  0  0  0  0  0  0
    5.3329    0.6039    0.0000 C   0  0  0  0  0  0  0  0  0  0  0  0
  1  2  1  0  0  0  0
  2  3  2  0  0  0  0
  2  4  1  0  0  0  0
  4  5  1  0  0  0  0
  5  6  1  0  0  0  0
  6  7  1  0  0  0  0
  7  8  1  0  0  0  0
  7  9  1  0  0  0  0
M  END
> <activity>
-18.7

> <InChiKey>
MLFHJEHSLIIPHL-UHFFFAOYSA-N

$$$$

  Mrv2220 08292413132D          

 10 10  0  0  0  0            999 V2000
    0.7145    2.0625    0.0000 C   0  0  0  0  0  0  0  0  0  0  0  0
    0.7145    1.2375    0.0000 C   0  0  0  0  0  0  0  0  0  0  0  0
    1.4289    0.8250    0.0000 C   0  0  0  0  0  0  0  0  0  0  0  0
    1.4289   -0.0000    0.0000 C   0  0  0  0  0  0  0  0  0  0  0  0
    0.7145   -0.4125    0.0000 C   0  0  0  0  0  0  0  0  0  0  0  0
    0.0000    0.0000    0.0000 C   0  0  0  0  0  0  0  0  0  0  0  0
   -0.7145   -0.4125    0.0000 N   0  3  0  0  0  0  0  0  0  0  0  0
   -0.7145   -1.2375    0.0000 O   0  0  0  0  0  0  0  0  0  0  0  0
   -1.4289    0.0000    0.0000 O   0  5  0  0  0  0  0  0  0  0  0  0
    0.0000    0.8250    0.0000 C   0  0  0  0  0  0  0  0  0  0  0  0
  1  2  1  0  0  0  0
  2  3  4  0  0  0  0
  3  4  4  0  0  0  0
  4  5  4  0  0  0  0
  5  6  4  0  0  0  0
  6  7  1  0  0  0  0
  7  8  2  0  0  0  0
  7  9  1  0  0  0  0
  6 10  4  0  0  0  0
  2 10  4  0  0  0  0
M  CHG  2   7   1   9  -1
M  END
> <activity>
30.1

> <InChiKey>
QZYHIOPPLUPUJF-UHFFFAOYSA-N

$$$$

  Mrv2220 08292413132D          

 20 19  0  0  0  0            999 V2000
    2.9980   -2.5559    0.0000 C   0  0  0  0  0  0  0  0  0  0  0  0
    3.7125   -2.1434    0.0000 O   0  0  0  0  0  0  0  0  0  0  0  0
    4.4270   -2.5559    0.0000 C   0  0  0  0  0  0  0  0  0  0  0  0
    5.1414   -2.1434    0.0000 C   0  0  0  0  0  0  0  0  0  0  0  0
    5.8559   -2.5559    0.0000 O   0  0  0  0  0  0  0  0  0  0  0  0
    6.5704   -2.1434    0.0000 C   0  0  0  0  0  0  0  0  0  0  0  0
    7.2849   -2.5559    0.0000 C   0  0  0  0  0  0  0  0  0  0  0  0
    7.9993   -2.1434    0.0000 C   0  0  0  0  0  0  0  0  0  0  0  0
    8.7138   -2.5559    0.0000 Si  0  0  0  0  0  0  0  0  0  0  0  0
    8.3013   -3.2704    0.0000 C   0  0  0  0  0  0  0  0  0  0  0  0
    9.4283   -2.9684    0.0000 O   0  0  0  0  0  0  0  0  0  0  0  0
    9.4283   -3.7934    0.0000 Si  0  0  0  0  0  0  0  0  0  0  0  0
    9.4283   -4.6184    0.0000 C   0  0  0  0  0  0  0  0  0  0  0  0
    8.6033   -3.7934    0.0000 C   0  0  0  0  0  0  0  0  0  0  0  0
   10.2533   -3.7934    0.0000 C   0  0  0  0  0  0  0  0  0  0  0  0
    9.1263   -1.8414    0.0000 O   0  0  0  0  0  0  0  0  0  0  0  0
    9.9513   -1.8414    0.0000 Si  0  0  0  0  0  0  0  0  0  0  0  0
    9.9513   -2.6664    0.0000 C   0  0  0  0  0  0  0  0  0  0  0  0
    9.9513   -1.0164    0.0000 C   0  0  0  0  0  0  0  0  0  0  0  0
   10.7763   -1.8414    0.0000 C   0  0  0  0  0  0  0  0  0  0  0  0
  1  2  1  0  0  0  0
  2  3  1  0  0  0  0
  3  4  1  0  0  0  0
  4  5  1  0  0  0  0
  5  6  1  0  0  0  0
  6  7  1  0  0  0  0
  7  8  1  0  0  0  0
  8  9  1  0  0  0  0
  9 10  1  0  0  0  0
  9 11  1  0  0  0  0
 11 12  1  0  0  0  0
 12 13  1  0  0  0  0
 12 14  1  0  0  0  0
 12 15  1  0  0  0  0
  9 16  1  0  0  0  0
 16 17  1  0  0  0  0
 17 18  1  0  0  0  0
 17 19  1  0  0  0  0
 17 20  1  0  0  0  0
M  END
> <activity>
33.6

> <InChiKey>
JQRXTVACLHSVTF-UHFFFAOYSA-N

$$$$

  Mrv2220 08292413132D          

 16 17  0  0  0  0            999 V2000
    2.8579    0.0000    0.0000 O   0  0  0  0  0  0  0  0  0  0  0  0
    2.1434   -0.4125    0.0000 C   0  0  0  0  0  0  0  0  0  0  0  0
    1.4289    0.0000    0.0000 O   0  0  0  0  0  0  0  0  0  0  0  0
    2.1434   -1.2375    0.0000 C   0  0  0  0  0  0  0  0  0  0  0  0
    2.8579   -1.6500    0.0000 C   0  0  0  0  0  0  0  0  0  0  0  0
    2.8579   -2.4750    0.0000 C   0  0  0  0  0  0  0  0  0  0  0  0
    2.1434   -2.8875    0.0000 C   0  0  0  0  0  0  0  0  0  0  0  0
    1.4289   -2.4750    0.0000 C   0  0  0  0  0  0  0  0  0  0  0  0
    0.7145   -2.8875    0.0000 O   0  0  0  0  0  0  0  0  0  0  0  0
    0.0000   -2.4750    0.0000 C   0  0  0  0  0  0  0  0  0  0  0  0
   -0.7145   -2.8875    0.0000 C   0  0  0  0  0  0  0  0  0  0  0  0
   -1.4289   -2.4750    0.0000 C   0  0  0  0  0  0  0  0  0  0  0  0
   -1.4289   -1.6500    0.0000 C   0  0  0  0  0  0  0  0  0  0  0  0
   -0.7145   -1.2375    0.0000 C   0  0  0  0  0  0  0  0  0  0  0  0
    0.0000   -1.6500    0.0000 C   0  0  0  0  0  0  0  0  0  0  0  0
    1.4289   -1.6500    0.0000 C   0  0  0  0  0  0  0  0  0  0  0  0
  1  2  2  0  0  0  0
  2  3  1  0  0  0  0
  2  4  1  0  0  0  0
  4  5  4  0  0  0  0
  5  6  4  0  0  0  0
  6  7  4  0  0  0  0
  7  8  4  0  0  0  0
  8  9  1  0  0  0  0
  9 10  1  0  0  0  0
 10 11  4  0  0  0  0
 11 12  4  0  0  0  0
 12 13  4  0  0  0  0
 13 14  4  0  0  0  0
 14 15  4  0  0  0  0
 10 15  4  0  0  0  0
  8 16  4  0  0  0  0
  4 16  4  0  0  0  0
M  END
> <activity>
98.8

> <InChiKey>
NXTDJHZGHOFSQG-UHFFFAOYSA-N

$$$$

  Mrv2220 08292413132D          

 12 12  0  0  0  0            999 V2000
    0.7145   -0.4125    0.0000 C   0  0  0  0  0  0  0  0  0  0  0  0
    1.4289   -0.8250    0.0000 C   0  0  0  0  0  0  0  0  0  0  0  0
    1.4289   -1.6500    0.0000 C   0  0  0  0  0  0  0  0  0  0  0  0
    2.1434   -2.0625    0.0000 C   0  0  0  0  0  0  0  0  0  0  0  0
    2.8579   -1.6500    0.0000 C   0  0  0  0  0  0  0  0  0  0  0  0
    3.5724   -2.0625    0.0000 C   0  0  0  0  0  0  0  0  0  0  0  0
    2.1434   -2.8875    0.0000 C   0  0  0  0  0  0  0  0  0  0  0  0
    2.8579   -3.3000    0.0000 C   0  0  0  0  0  0  0  0  0  0  0  0
    2.8579   -4.1250    0.0000 C   0  0  0  0  0  0  0  0  0  0  0  0
    2.1434   -4.5375    0.0000 C   0  0  0  0  0  0  0  0  0  0  0  0
    1.4289   -4.1250    0.0000 C   0  0  0  0  0  0  0  0  0  0  0  0
    1.4289   -3.3000    0.0000 C   0  0  0  0  0  0  0  0  0  0  0  0
  1  2  1  0  0  0  0
  2  3  1  0  0  0  0
  3  4  1  0  0  0  0
  4  5  1  0  0  0  0
  5  6  1  0  0  0  0
  4  7  1  0  0  0  0
  7  8  4  0  0  0  0
  8  9  4  0  0  0  0
  9 10  4  0  0  0  0
 10 11  4  0  0  0  0
 11 12  4  0  0  0  0
  7 12  4  0  0  0  0
M  END
> <activity>
8.8

> <InChiKey>
SLVCCWGFGQVDMN-UHFFFAOYSA-N

$$$$

  Mrv2220 08292413132D          

  8  8  0  0  0  0            999 V2000
    0.7145    2.8875    0.0000 N   0  0  0  0  0  0  0  0  0  0  0  0
    0.7145    2.0625    0.0000 C   0  0  0  0  0  0  0  0  0  0  0  0
    0.7145    1.2375    0.0000 C   0  0  0  0  0  0  0  0  0  0  0  0
    1.4289    0.8250    0.0000 C   0  0  0  0  0  0  0  0  0  0  0  0
    1.4289   -0.0000    0.0000 C   0  0  0  0  0  0  0  0  0  0  0  0
    0.7145   -0.4125    0.0000 C   0  0  0  0  0  0  0  0  0  0  0  0
    0.0000    0.0000    0.0000 N   0  0  0  0  0  0  0  0  0  0  0  0
    0.0000    0.8250    0.0000 C   0  0  0  0  0  0  0  0  0  0  0  0
  1  2  3  0  0  0  0
  2  3  1  0  0  0  0
  3  4  4  0  0  0  0
  4  5  4  0  0  0  0
  5  6  4  0  0  0  0
  6  7  4  0  0  0  0
  7  8  4  0  0  0  0
  3  8  4  0  0  0  0
M  END
> <activity>
5.5

> <InChiKey>
GZPHSAQLYPIAIN-UHFFFAOYSA-N

$$$$

  Mrv2220 08292413132D          

 11 11  0  0  0  0            999 V2000
    0.7145    2.8875    0.0000 C   0  0  0  0  0  0  0  0  0  0  0  0
    0.7145    2.0625    0.0000 C   0  0  0  0  0  0  0  0  0  0  0  0
   -0.1105    2.0625    0.0000 C   0  0  0  0  0  0  0  0  0  0  0  0
    1.5395    2.0625    0.0000 C   0  0  0  0  0  0  0  0  0  0  0  0
    0.7145    1.2375    0.0000 C   0  0  0  0  0  0  0  0  0  0  0  0
    1.4289    0.8250    0.0000 C   0  0  0  0  0  0  0  0  0  0  0  0
    1.4289   -0.0000    0.0000 C   0  0  0  0  0  0  0  0  0  0  0  0
    0.7145   -0.4125    0.0000 C   0  0  0  0  0  0  0  0  0  0  0  0
    0.0000    0.0000    0.0000 C   0  0  0  0  0  0  0  0  0  0  0  0
   -0.7145   -0.4125    0.0000 O   0  0  0  0  0  0  0  0  0  0  0  0
    0.0000    0.8250    0.0000 C   0  0  0  0  0  0  0  0  0  0  0  0
  1  2  1  0  0  0  0
  2  3  1  0  0  0  0
  2  4  1  0  0  0  0
  2  5  1  0  0  0  0
  5  6  4  0  0  0  0
  6  7  4  0  0  0  0
  7  8  4  0  0  0  0
  8  9  4  0  0  0  0
  9 10  1  0  0  0  0
  9 11  4  0  0  0  0
  5 11  4  0  0  0  0
M  END
> <activity>
81.7

> <InChiKey>
CYEKUDPFXBLGHH-UHFFFAOYSA-N

$$$$

  Mrv2220 08292413132D          

 10 10  0  0  0  0            999 V2000
    2.1434   -0.4125    0.0000 C   0  0  0  0  0  0  0  0  0  0  0  0
    1.4289    0.0000    0.0000 C   0  0  0  0  0  0  0  0  0  0  0  0
    0.7145   -0.4125    0.0000 C   0  0  0  0  0  0  0  0  0  0  0  0
    0.0000    0.0000    0.0000 C   0  0  0  0  0  0  0  0  0  0  0  0
   -0.7145   -0.4125    0.0000 O   0  0  0  0  0  0  0  0  0  0  0  0
    0.0000    0.8250    0.0000 C   0  0  0  0  0  0  0  0  0  0  0  0
    0.7145    1.2375    0.0000 C   0  0  0  0  0  0  0  0  0  0  0  0
    0.1842    1.8695    0.0000 C   0  0  0  0  0  0  0  0  0  0  0  0
    1.2448    1.8695    0.0000 C   0  0  0  0  0  0  0  0  0  0  0  0
    1.4289    0.8250    0.0000 C   0  0  0  0  0  0  0  0  0  0  0  0
  1  2  1  0  0  0  0
  2  3  1  0  0  0  0
  3  4  1  0  0  0  0
  4  5  1  0  0  0  0
  4  6  1  0  0  0  0
  6  7  1  0  0  0  0
  7  8  1  0  0  0  0
  7  9  1  0  0  0  0
  7 10  1  0  0  0  0
  2 10  1  0  0  0  0
M  END
> <activity>
9.8

> <InChiKey>
BRRVXFOKWJKTGG-UHFFFAOYSA-N

$$$$

  Mrv2220 08292413132D          

 19 20  0  0  0  0            999 V2000
    2.8579   -4.1250    0.0000 C   0  0  0  0  0  0  0  0  0  0  0  0
    2.1434   -3.7125    0.0000 C   0  0  0  0  0  0  0  0  0  0  0  0
    1.4289   -4.1250    0.0000 C   0  0  0  0  0  0  0  0  0  0  0  0
    0.7145   -3.7125    0.0000 C   0  0  0  0  0  0  0  0  0  0  0  0
    0.0000   -4.1250    0.0000 O   0  0  0  0  0  0  0  0  0  0  0  0
    0.0000   -4.9500    0.0000 C   0  0  0  0  0  0  0  0  0  0  0  0
    0.7145   -5.3625    0.0000 O   0  0  0  0  0  0  0  0  0  0  0  0
   -0.7145   -5.3625    0.0000 C   0  0  0  0  0  0  0  0  0  0  0  0
   -0.7145   -6.1875    0.0000 C   0  0  0  0  0  0  0  0  0  0  0  0
   -1.4289   -6.6000    0.0000 C   0  0  0  0  0  0  0  0  0  0  0  0
   -2.1434   -6.1875    0.0000 C   0  0  0  0  0  0  0  0  0  0  0  0
   -2.1434   -5.3625    0.0000 C   0  0  0  0  0  0  0  0  0  0  0  0
   -1.4289   -4.9500    0.0000 C   0  0  0  0  0  0  0  0  0  0  0  0
   -1.4289   -4.1250    0.0000 O   0  0  0  0  0  0  0  0  0  0  0  0
    0.7145   -2.8875    0.0000 C   0  0  0  0  0  0  0  0  0  0  0  0
    1.4289   -2.4750    0.0000 C   0  0  0  0  0  0  0  0  0  0  0  0
    0.8986   -1.8430    0.0000 C   0  0  0  0  0  0  0  0  0  0  0  0
    1.9592   -1.8430    0.0000 C   0  0  0  0  0  0  0  0  0  0  0  0
    2.1434   -2.8875    0.0000 C   0  0  0  0  0  0  0  0  0  0  0  0
  1  2  1  0  0  0  0
  2  3  1  0  0  0  0
  3  4  1  0  0  0  0
  4  5  1  0  0  0  0
  5  6  1  0  0  0  0
  6  7  2  0  0  0  0
  6  8  1  0  0  0  0
  8  9  4  0  0  0  0
  9 10  4  0  0  0  0
 10 11  4  0  0  0  0
 11 12  4  0  0  0  0
 12 13  4  0  0  0  0
  8 13  4  0  0  0  0
 13 14  1  0  0  0  0
  4 15  1  0  0  0  0
 15 16  1  0  0  0  0
 16 17  1  0  0  0  0
 16 18  1  0  0  0  0
 16 19  1  0  0  0  0
  2 19  1  0  0  0  0
M  END
> <activity>
68.6

> <InChiKey>
WSSJONWNBBTCMG-UHFFFAOYSA-N

$$$$

  Mrv2220 08292413132D          

 21 22  0  0  0  0            999 V2000
    1.5395   -1.2375    0.0000 C   0  0  0  0  0  0  0  0  0  0  0  0
    0.7145   -1.2375    0.0000 C   0  0  0  0  0  0  0  0  0  0  0  0
   -0.1105   -1.2375    0.0000 C   0  0  0  0  0  0  0  0  0  0  0  0
    0.7145   -2.0625    0.0000 C   0  0  0  0  0  0  0  0  0  0  0  0
    1.4289   -2.4750    0.0000 C   0  0  0  0  0  0  0  0  0  0  0  0
    1.4289   -3.3000    0.0000 C   0  0  0  0  0  0  0  0  0  0  0  0
    2.1434   -3.7125    0.0000 Br  0  0  0  0  0  0  0  0  0  0  0  0
    0.7145   -3.7125    0.0000 C   0  0  0  0  0  0  0  0  0  0  0  0
    0.7145   -4.5375    0.0000 O   0  0  0  0  0  0  0  0  0  0  0  0
    0.0000   -3.3000    0.0000 C   0  0  0  0  0  0  0  0  0  0  0  0
   -0.7145   -3.7125    0.0000 Br  0  0  0  0  0  0  0  0  0  0  0  0
    0.0000   -2.4750    0.0000 C   0  0  0  0  0  0  0  0  0  0  0  0
    0.7145   -0.4125    0.0000 C   0  0  0  0  0  0  0  0  0  0  0  0
    0.0000    0.0000    0.0000 C   0  0  0  0  0  0  0  0  0  0  0  0
    0.0000    0.8250    0.0000 C   0  0  0  0  0  0  0  0  0  0  0  0
   -0.7145    1.2375    0.0000 Br  0  0  0  0  0  0  0  0  0  0  0  0
    0.7145    1.2375    0.0000 C   0  0  0  0  0  0  0  0  0  0  0  0
    0.7145    2.0625    0.0000 O   0  0  0  0  0  0  0  0  0  0  0  0
    1.4289    0.8250    0.0000 C   0  0  0  0  0  0  0  0  0  0  0  0
    2.1434    1.2375    0.0000 Br  0  0  0  0  0  0  0  0  0  0  0  0
    1.4289   -0.0000    0.0000 C   0  0  0  0  0  0  0  0  0  0  0  0
  1  2  1  0  0  0  0
  2  3  1  0  0  0  0
  2  4  1  0  0  0  0
  4  5  4  0  0  0  0
  5  6  4  0  0  0  0
  6  7  1  0  0  0  0
  6  8  4  0  0  0  0
  8  9  1  0  0  0  0
  8 10  4  0  0  0  0
 10 11  1  0  0  0  0
 10 12  4  0  0  0  0
  4 12  4  0  0  0  0
  2 13  1  0  0  0  0
 13 14  4  0  0  0  0
 14 15  4  0  0  0  0
 15 16  1  0  0  0  0
 15 17  4  0  0  0  0
 17 18  1  0  0  0  0
 17 19  4  0  0  0  0
 19 20  1  0  0  0  0
 19 21  4  0  0  0  0
 13 21  4  0  0  0  0
M  END
> <activity>
105.8

> <InChiKey>
VEORPZCZECFIRK-UHFFFAOYSA-N

$$$$

  Mrv2220 08292413132D          

  6  6  0  0  0  0            999 V2000
    0.7145    1.2375    0.0000 C   0  0  0  0  0  0  0  0  0  0  0  0
    1.4289    0.8250    0.0000 C   0  0  0  0  0  0  0  0  0  0  0  0
    1.4289   -0.0000    0.0000 O   0  0  0  0  0  0  0  0  0  0  0  0
    0.7145   -0.4125    0.0000 C   0  0  0  0  0  0  0  0  0  0  0  0
    0.0000    0.0000    0.0000 C   0  0  0  0  0  0  0  0  0  0  0  0
    0.0000    0.8250    0.0000 C   0  0  0  0  0  0  0  0  0  0  0  0
  1  2  2  0  0  0  0
  2  3  1  0  0  0  0
  3  4  1  0  0  0  0
  4  5  1  0  0  0  0
  5  6  1  0  0  0  0
  1  6  1  0  0  0  0
M  END
> <activity>
12.7

> <InChiKey>
BUDQDWGNQVEFAC-UHFFFAOYSA-N

$$$$

  Mrv2220 08292413132D          

  9  9  0  0  0  0            999 V2000
    0.7145    2.0625    0.0000 N   0  0  0  0  0  0  0  0  0  0  0  0
    0.7145    1.2375    0.0000 C   0  0  0  0  0  0  0  0  0  0  0  0
    1.4289    0.8250    0.0000 C   0  0  0  0  0  0  0  0  0  0  0  0
    1.4289   -0.0000    0.0000 C   0  0  0  0  0  0  0  0  0  0  0  0
    2.1434   -0.4125    0.0000 Cl  0  0  0  0  0  0  0  0  0  0  0  0
    0.7145   -0.4125    0.0000 C   0  0  0  0  0  0  0  0  0  0  0  0
    0.0000    0.0000    0.0000 C   0  0  0  0  0  0  0  0  0  0  0  0
   -0.7145   -0.4125    0.0000 Cl  0  0  0  0  0  0  0  0  0  0  0  0
    0.0000    0.8250    0.0000 C   0  0  0  0  0  0  0  0  0  0  0  0
  1  2  1  0  0  0  0
  2  3  4  0  0  0  0
  3  4  4  0  0  0  0
  4  5  1  0  0  0  0
  4  6  4  0  0  0  0
  6  7  4  0  0  0  0
  7  8  1  0  0  0  0
  7  9  4  0  0  0  0
  2  9  4  0  0  0  0
M  END
> <activity>
93.5

> <InChiKey>
UQRLKWGPEVNVHT-UHFFFAOYSA-N

$$$$

  Mrv2220 08292413132D          

 10  9  0  0  0  0            999 V2000
   -0.6039   -0.8250    0.0000 C   0  0  0  0  0  0  0  0  0  0  0  0
    0.1105   -1.2375    0.0000 C   0  0  0  0  0  0  0  0  0  0  0  0
    0.1105   -2.0625    0.0000 C   0  0  0  0  0  0  0  0  0  0  0  0
   -0.6039   -2.4750    0.0000 C   0  0  0  0  0  0  0  0  0  0  0  0
   -0.6039   -3.3000    0.0000 O   0  0  0  0  0  0  0  0  0  0  0  0
    0.8250   -0.8250    0.0000 C   0  0  0  0  0  0  0  0  0  0  0  0
    0.8250    0.0000    0.0000 C   0  0  0  0  0  0  0  0  0  0  0  0
    0.8250    0.8250    0.0000 C   0  0  0  0  0  0  0  0  0  0  0  0
    1.6500   -0.0000    0.0000 C   0  0  0  0  0  0  0  0  0  0  0  0
    0.0000    0.0000    0.0000 C   0  0  0  0  0  0  0  0  0  0  0  0
  1  2  1  0  0  0  0
  2  3  1  0  0  0  0
  3  4  1  0  0  0  0
  4  5  1  0  0  0  0
  2  6  1  0  0  0  0
  6  7  1  0  0  0  0
  7  8  1  0  0  0  0
  7  9  1  0  0  0  0
  7 10  1  0  0  0  0
M  END
> <activity>
28.5

> <InChiKey>
BODRLKRKPXBDBN-UHFFFAOYSA-N

$$$$

  Mrv2220 08292413132D          

 17 16  0  0  0  0            999 V2000
    7.9480    5.4138    0.0000 C   0  0  0  0  0  0  0  0  0  0  0  0
    8.6625    5.0013    0.0000 C   0  0  0  0  0  0  0  0  0  0  0  0
    9.3770    5.4138    0.0000 C   0  0  0  0  0  0  0  0  0  0  0  0
   10.0914    5.0013    0.0000 C   0  0  0  0  0  0  0  0  0  0  0  0
   10.8059    5.4138    0.0000 O   0  0  0  0  0  0  0  0  0  0  0  0
   11.5204    5.0013    0.0000 C   0  0  0  0  0  0  0  0  0  0  0  0
   12.2349    5.4138    0.0000 C   0  0  0  0  0  0  0  0  0  0  0  0
   12.9493    5.0013    0.0000 O   0  0  0  0  0  0  0  0  0  0  0  0
   13.6638    5.4138    0.0000 C   0  0  0  0  0  0  0  0  0  0  0  0
   14.3783    5.0013    0.0000 C   0  0  0  0  0  0  0  0  0  0  0  0
   15.0927    5.4138    0.0000 O   0  0  0  0  0  0  0  0  0  0  0  0
   15.8072    5.0013    0.0000 C   0  0  0  0  0  0  0  0  0  0  0  0
   16.5217    5.4138    0.0000 C   0  0  0  0  0  0  0  0  0  0  0  0
   17.2362    5.0013    0.0000 O   0  0  0  0  0  0  0  0  0  0  0  0
   17.9506    5.4138    0.0000 C   0  0  0  0  0  0  0  0  0  0  0  0
   18.6651    5.0013    0.0000 C   0  0  0  0  0  0  0  0  0  0  0  0
   19.3796    5.4138    0.0000 O   0  0  0  0  0  0  0  0  0  0  0  0
  1  2  1  0  0  0  0
  2  3  1  0  0  0  0
  3  4  1  0  0  0  0
  4  5  1  0  0  0  0
  5  6  1  0  0  0  0
  6  7  1  0  0  0  0
  7  8  1  0  0  0  0
  8  9  1  0  0  0  0
  9 10  1  0  0  0  0
 10 11  1  0  0  0  0
 11 12  1  0  0  0  0
 12 13  1  0  0  0  0
 13 14  1  0  0  0  0
 14 15  1  0  0  0  0
 15 16  1  0  0  0  0
 16 17  1  0  0  0  0
M  END
> <activity>
5.2

> <InChiKey>
MXVMODFDROLTFD-UHFFFAOYSA-N

$$$$

  Mrv2220 08292413132D          

 11 10  0  0  0  0            999 V2000
    3.7125    2.1434    0.0000 C   0  0  0  0  0  0  0  0  0  0  0  0
    3.3000    1.4289    0.0000 C   0  0  0  0  0  0  0  0  0  0  0  0
    3.7125    0.7145    0.0000 C   0  0  0  0  0  0  0  0  0  0  0  0
    2.4750    1.4289    0.0000 C   0  0  0  0  0  0  0  0  0  0  0  0
    2.0625    0.7145    0.0000 C   0  0  0  0  0  0  0  0  0  0  0  0
    1.2375    0.7145    0.0000 C   0  0  0  0  0  0  0  0  0  0  0  0
    0.8250    0.0000    0.0000 C   0  0  0  0  0  0  0  0  0  0  0  0
    1.2375   -0.7145    0.0000 C   0  0  0  0  0  0  0  0  0  0  0  0
    0.0000    0.0000    0.0000 C   0  0  0  0  0  0  0  0  0  0  0  0
   -0.4125   -0.7145    0.0000 C   0  0  0  0  0  0  0  0  0  0  0  0
    0.0000   -1.4289    0.0000 O   0  0  0  0  0  0  0  0  0  0  0  0
  1  2  1  0  0  0  0
  2  3  1  0  0  0  0
  2  4  2  0  0  0  0
  4  5  1  0  0  0  0
  5  6  1  0  0  0  0
  6  7  1  0  0  0  0
  7  8  1  0  0  0  0
  7  9  2  0  0  0  0
  9 10  1  4  0  0  0
 10 11  2  0  0  0  0
M  END
> <activity>
33.5

> <InChiKey>
WTEVQBCEXWBHNA-UHFFFAOYSA-N

$$$$

  Mrv2220 08292413132D          

 11 10  0  0  0  0            999 V2000
    0.8250    4.2868    0.0000 C   0  0  0  0  0  0  0  0  0  0  0  0
    0.4125    3.5724    0.0000 C   0  0  0  0  0  0  0  0  0  0  0  0
    0.8250    2.8579    0.0000 C   0  0  0  0  0  0  0  0  0  0  0  0
    0.1105    2.4454    0.0000 C   0  0  0  0  0  0  0  0  0  0  0  0
    1.5395    3.2704    0.0000 O   0  0  0  0  0  0  0  0  0  0  0  0
    1.2375    2.1434    0.0000 C   0  0  0  0  0  0  0  0  0  0  0  0
    0.8250    1.4289    0.0000 C   0  0  0  0  0  0  0  0  0  0  0  0
    1.2375    0.7145    0.0000 C   0  0  0  0  0  0  0  0  0  0  0  0
    0.8250    0.0000    0.0000 C   0  0  0  0  0  0  0  0  0  0  0  0
    1.2375   -0.7145    0.0000 C   0  0  0  0  0  0  0  0  0  0  0  0
    0.0000    0.0000    0.0000 C   0  0  0  0  0  0  0  0  0  0  0  0
  1  2  1  0  0  0  0
  2  3  1  0  0  0  0
  3  4  1  0  0  0  0
  3  5  1  0  0  0  0
  3  6  1  0  0  0  0
  6  7  1  0  0  0  0
  7  8  1  0  0  0  0
  8  9  1  0  0  0  0
  9 10  1  0  0  0  0
  9 11  1  0  0  0  0
M  END
> <activity>
11.3

> <InChiKey>
DLHQZZUEERVIGQ-UHFFFAOYSA-N

$$$$

  Mrv2220 08292413132D          

 14 13  0  0  0  0            999 V2000
    0.1105    0.4125    0.0000 C   0  0  0  0  0  0  0  0  0  0  0  0
    0.8250    0.0000    0.0000 C   0  0  0  0  0  0  0  0  0  0  0  0
    1.5395    0.4125    0.0000 C   0  0  0  0  0  0  0  0  0  0  0  0
    2.2539    0.8250    0.0000 C   0  0  0  0  0  0  0  0  0  0  0  0
    1.9520   -0.3020    0.0000 C   0  0  0  0  0  0  0  0  0  0  0  0
    1.5395   -1.0164    0.0000 C   0  0  0  0  0  0  0  0  0  0  0  0
    1.9520   -1.7309    0.0000 C   0  0  0  0  0  0  0  0  0  0  0  0
    1.5395   -2.4454    0.0000 C   0  0  0  0  0  0  0  0  0  0  0  0
    1.9520   -3.1599    0.0000 C   0  0  0  0  0  0  0  0  0  0  0  0
    0.7145   -2.4454    0.0000 C   0  0  0  0  0  0  0  0  0  0  0  0
    1.1270    1.1270    0.0000 O   0  0  0  0  0  0  0  0  0  0  0  0
    1.5395    1.8414    0.0000 C   0  0  0  0  0  0  0  0  0  0  0  0
    1.1270    2.5559    0.0000 C   0  0  0  0  0  0  0  0  0  0  0  0
    2.3645    1.8414    0.0000 O   0  0  0  0  0  0  0  0  0  0  0  0
  1  2  1  0  0  0  0
  2  3  1  0  0  0  0
  3  4  1  0  0  0  0
  3  5  1  0  0  0  0
  5  6  1  0  0  0  0
  6  7  1  0  0  0  0
  7  8  1  0  0  0  0
  8  9  1  0  0  0  0
  8 10  1  0  0  0  0
  3 11  1  0  0  0  0
 11 12  1  0  0  0  0
 12 13  1  0  0  0  0
 12 14  2  0  0  0  0
M  END
> <activity>
9.6

> <InChiKey>
RBKRCARRXLFUGJ-UHFFFAOYSA-N

$$$$

  Mrv2220 08292413132D          

 19 20  0  0  0  0            999 V2000
    0.1067    4.7652    0.0000 C   0  0  0  0  0  0  0  0  0  0  0  0
   -0.6078    4.3527    0.0000 C   0  0  0  0  0  0  0  0  0  0  0  0
   -0.6078    3.5277    0.0000 C   0  0  0  0  0  0  0  0  0  0  0  0
   -1.3222    3.1152    0.0000 N   0  0  0  0  0  0  0  0  0  0  0  0
   -1.3222    2.2902    0.0000 C   0  0  0  0  0  0  0  0  0  0  0  0
   -0.6548    1.8053    0.0000 C   0  0  0  0  0  0  0  0  0  0  0  0
   -0.9097    1.0206    0.0000 C   0  0  0  0  0  0  0  0  0  0  0  0
   -0.4248    0.3532    0.0000 N   0  0  0  0  0  0  0  0  0  0  0  0
    0.3957    0.4394    0.0000 N   0  3  0  0  0  0  0  0  0  0  0  0
    1.2161    0.5257    0.0000 N   0  5  0  0  0  0  0  0  0  0  0  0
   -1.7347    1.0206    0.0000 C   0  0  0  0  0  0  0  0  0  0  0  0
   -2.2197    0.3532    0.0000 C   0  0  0  0  0  0  0  0  0  0  0  0
   -3.0401    0.4394    0.0000 O   0  0  0  0  0  0  0  0  0  0  0  0
   -1.9897    1.8053    0.0000 O   0  0  0  0  0  0  0  0  0  0  0  0
   -2.0367    3.5277    0.0000 C   0  0  0  0  0  0  0  0  0  0  0  0
   -2.7512    3.1152    0.0000 O   0  0  0  0  0  0  0  0  0  0  0  0
   -2.0367    4.3527    0.0000 N   0  0  0  0  0  0  0  0  0  0  0  0
   -1.3222    4.7652    0.0000 C   0  0  0  0  0  0  0  0  0  0  0  0
   -1.3222    5.5902    0.0000 O   0  0  0  0  0  0  0  0  0  0  0  0
  1  2  1  0  0  0  0
  2  3  4  0  0  0  0
  3  4  4  0  0  0  0
  4  5  1  0  0  0  0
  5  6  1  0  0  0  0
  6  7  1  0  0  0  0
  7  8  1  0  0  0  0
  8  9  2  0  0  0  0
  9 10  2  0  0  0  0
  7 11  1  0  0  0  0
 11 12  1  0  0  0  0
 12 13  1  0  0  0  0
 11 14  1  0  0  0  0
  5 14  1  0  0  0  0
  4 15  4  0  0  0  0
 15 16  2  0  0  0  0
 15 17  4  0  0  0  0
 17 18  4  0  0  0  0
  2 18  4  0  0  0  0
 18 19  2  0  0  0  0
M  CHG  2   9   1  10  -1
M  STY  1   1 DAT
M  SAL   1  1  17
M  SDT   1 MRV_IMPLICIT_H                                        
M  SDD   1     0.5304   -0.4125    DR    ALL  0       0  
M  SED   1 IMPL_H1
M  END
> <activity>
2.0

> <InChiKey>
HBOMLICNUCNMMY-UHFFFAOYSA-N

$$$$

  Mrv2220 08292413132D          

 11 11  0  0  0  0            999 V2000
    0.7145    2.8875    0.0000 C   0  0  0  0  0  0  0  0  0  0  0  0
    0.7145    2.0625    0.0000 C   0  0  0  0  0  0  0  0  0  0  0  0
   -0.1105    2.0625    0.0000 C   0  0  0  0  0  0  0  0  0  0  0  0
    1.5395    2.0625    0.0000 C   0  0  0  0  0  0  0  0  0  0  0  0
    0.7145    1.2375    0.0000 C   0  0  0  0  0  0  0  0  0  0  0  0
    1.4289    0.8250    0.0000 C   0  0  0  0  0  0  0  0  0  0  0  0
    1.4289   -0.0000    0.0000 C   0  0  0  0  0  0  0  0  0  0  0  0
    0.7145   -0.4125    0.0000 C   0  0  0  0  0  0  0  0  0  0  0  0
    0.7145   -1.2375    0.0000 O   0  0  0  0  0  0  0  0  0  0  0  0
    0.0000    0.0000    0.0000 C   0  0  0  0  0  0  0  0  0  0  0  0
    0.0000    0.8250    0.0000 C   0  0  0  0  0  0  0  0  0  0  0  0
  1  2  1  0  0  0  0
  2  3  1  0  0  0  0
  2  4  1  0  0  0  0
  2  5  1  0  0  0  0
  5  6  4  0  0  0  0
  6  7  4  0  0  0  0
  7  8  4  0  0  0  0
  8  9  1  0  0  0  0
  8 10  4  0  0  0  0
 10 11  4  0  0  0  0
  5 11  4  0  0  0  0
M  END
> <activity>
67.1

> <InChiKey>
QHPQWRBYOIRBIT-UHFFFAOYSA-N

$$$$

  Mrv2220 08292413132D          

 15 15  0  0  0  0            999 V2000
   -0.7145    3.7125    0.0000 C   0  0  0  0  0  0  0  0  0  0  0  0
    0.0000    3.3000    0.0000 C   0  0  0  0  0  0  0  0  0  0  0  0
   -0.4125    2.5855    0.0000 C   0  0  0  0  0  0  0  0  0  0  0  0
    0.4125    4.0145    0.0000 C   0  0  0  0  0  0  0  0  0  0  0  0
    0.7145    2.8875    0.0000 C   0  0  0  0  0  0  0  0  0  0  0  0
    0.7145    2.0625    0.0000 C   0  0  0  0  0  0  0  0  0  0  0  0
   -0.1105    2.0625    0.0000 C   0  0  0  0  0  0  0  0  0  0  0  0
    1.5395    2.0625    0.0000 C   0  0  0  0  0  0  0  0  0  0  0  0
    0.7145    1.2375    0.0000 C   0  0  0  0  0  0  0  0  0  0  0  0
    1.4289    0.8250    0.0000 C   0  0  0  0  0  0  0  0  0  0  0  0
    1.4289   -0.0000    0.0000 C   0  0  0  0  0  0  0  0  0  0  0  0
    0.7145   -0.4125    0.0000 C   0  0  0  0  0  0  0  0  0  0  0  0
    0.7145   -1.2375    0.0000 O   0  0  0  0  0  0  0  0  0  0  0  0
    0.0000    0.0000    0.0000 C   0  0  0  0  0  0  0  0  0  0  0  0
    0.0000    0.8250    0.0000 C   0  0  0  0  0  0  0  0  0  0  0  0
  1  2  1  0  0  0  0
  2  3  1  0  0  0  0
  2  4  1  0  0  0  0
  2  5  1  0  0  0  0
  5  6  1  0  0  0  0
  6  7  1  0  0  0  0
  6  8  1  0  0  0  0
  6  9  1  0  0  0  0
  9 10  4  0  0  0  0
 10 11  4  0  0  0  0
 11 12  4  0  0  0  0
 12 13  1  0  0  0  0
 12 14  4  0  0  0  0
 14 15  4  0  0  0  0
  9 15  4  0  0  0  0
M  END
> <activity>
94.7

> <InChiKey>
ISAVYTVYFVQUDY-UHFFFAOYSA-N

$$$$

  Mrv2220 08292413132D          

 12 12  0  0  0  0            999 V2000
    0.0000    3.3000    0.0000 C   0  0  0  0  0  0  0  0  0  0  0  0
    0.7145    2.8875    0.0000 C   0  0  0  0  0  0  0  0  0  0  0  0
    0.7145    2.0625    0.0000 C   0  0  0  0  0  0  0  0  0  0  0  0
   -0.1105    2.0625    0.0000 C   0  0  0  0  0  0  0  0  0  0  0  0
    1.5395    2.0625    0.0000 C   0  0  0  0  0  0  0  0  0  0  0  0
    0.7145    1.2375    0.0000 C   0  0  0  0  0  0  0  0  0  0  0  0
    1.4289    0.8250    0.0000 C   0  0  0  0  0  0  0  0  0  0  0  0
    1.4289   -0.0000    0.0000 C   0  0  0  0  0  0  0  0  0  0  0  0
    0.7145   -0.4125    0.0000 C   0  0  0  0  0  0  0  0  0  0  0  0
    0.7145   -1.2375    0.0000 O   0  0  0  0  0  0  0  0  0  0  0  0
    0.0000    0.0000    0.0000 C   0  0  0  0  0  0  0  0  0  0  0  0
    0.0000    0.8250    0.0000 C   0  0  0  0  0  0  0  0  0  0  0  0
  1  2  1  0  0  0  0
  2  3  1  0  0  0  0
  3  4  1  0  0  0  0
  3  5  1  0  0  0  0
  3  6  1  0  0  0  0
  6  7  4  0  0  0  0
  7  8  4  0  0  0  0
  8  9  4  0  0  0  0
  9 10  1  0  0  0  0
  9 11  4  0  0  0  0
 11 12  4  0  0  0  0
  6 12  4  0  0  0  0
M  END
> <activity>
91.2

> <InChiKey>
NRZWYNLTFLDQQX-UHFFFAOYSA-N

$$$$

  Mrv2220 08292413132D          

 14 14  0  0  0  0            999 V2000
    2.8579    3.3000    0.0000 C   0  0  0  0  0  0  0  0  0  0  0  0
    2.8579    2.4750    0.0000 C   0  0  0  0  0  0  0  0  0  0  0  0
    3.5724    2.0625    0.0000 O   0  0  0  0  0  0  0  0  0  0  0  0
    2.1434    2.0625    0.0000 C   0  0  0  0  0  0  0  0  0  0  0  0
    2.1434    1.2375    0.0000 C   0  0  0  0  0  0  0  0  0  0  0  0
    1.4289    0.8250    0.0000 C   0  0  0  0  0  0  0  0  0  0  0  0
    1.4289   -0.0000    0.0000 C   0  0  0  0  0  0  0  0  0  0  0  0
    2.1434   -0.4125    0.0000 C   0  0  0  0  0  0  0  0  0  0  0  0
    0.7145   -0.4125    0.0000 C   0  0  0  0  0  0  0  0  0  0  0  0
    0.0000    0.0000    0.0000 C   0  0  0  0  0  0  0  0  0  0  0  0
    0.0000    0.8250    0.0000 C   0  0  0  0  0  0  0  0  0  0  0  0
    0.7145    1.2375    0.0000 C   0  0  0  0  0  0  0  0  0  0  0  0
    0.3272    1.9659    0.0000 C   0  0  0  0  0  0  0  0  0  0  0  0
    1.1018    1.9659    0.0000 C   0  0  0  0  0  0  0  0  0  0  0  0
  1  2  1  0  0  0  0
  2  3  2  0  0  0  0
  4  2  1  4  0  0  0
  4  5  2  0  0  0  0
  5  6  1  0  0  0  0
  6  7  2  0  0  0  0
  7  8  1  0  0  0  0
  7  9  1  0  0  0  0
  9 10  1  0  0  0  0
 10 11  1  0  0  0  0
 11 12  1  0  0  0  0
  6 12  1  0  0  0  0
 12 13  1  0  0  0  0
 12 14  1  0  0  0  0
M  END
> <activity>
19.8

> <InChiKey>
PSQYTAPXSHCGMF-UHFFFAOYSA-N

$$$$

  Mrv2220 08292413132D          

 24 26  0  0  0  0            999 V2000
   -0.4972    0.5423    0.0000 N   0  0  0  0  0  0  0  0  0  0  0  0
   -0.9097   -0.1721    0.0000 C   0  0  0  0  0  0  0  0  0  0  0  0
   -1.3222   -0.8866    0.0000 C   0  0  0  0  0  0  0  0  0  0  0  0
   -1.7347   -1.6011    0.0000 C   0  0  0  0  0  0  0  0  0  0  0  0
   -2.5597   -1.6011    0.0000 C   0  0  0  0  0  0  0  0  0  0  0  0
   -2.9722   -2.3155    0.0000 C   0  0  0  0  0  0  0  0  0  0  0  0
   -2.5597   -3.0300    0.0000 C   0  0  0  0  0  0  0  0  0  0  0  0
   -2.9722   -3.7445    0.0000 C   0  0  0  0  0  0  0  0  0  0  0  0
   -3.7972   -3.7445    0.0000 C   0  0  0  0  0  0  0  0  0  0  0  0
   -4.2097   -4.4590    0.0000 Cl  0  0  0  0  0  0  0  0  0  0  0  0
   -4.2097   -3.0300    0.0000 C   0  0  0  0  0  0  0  0  0  0  0  0
   -3.7972   -2.3155    0.0000 C   0  0  0  0  0  0  0  0  0  0  0  0
   -0.6078   -1.2991    0.0000 C   0  0  0  0  0  0  0  0  0  0  0  0
   -0.6078   -2.1241    0.0000 N   0  0  0  0  0  0  0  0  0  0  0  0
    0.0597   -2.6090    0.0000 C   0  0  0  0  0  0  0  0  0  0  0  0
   -0.1953   -3.3937    0.0000 N   0  0  0  0  0  0  0  0  0  0  0  0
   -1.0203   -3.3937    0.0000 C   0  0  0  0  0  0  0  0  0  0  0  0
   -1.2752   -2.6090    0.0000 N   0  0  0  0  0  0  0  0  0  0  0  0
   -2.0367   -0.4741    0.0000 C   0  0  0  0  0  0  0  0  0  0  0  0
   -2.7512   -0.8866    0.0000 C   0  0  0  0  0  0  0  0  0  0  0  0
   -3.4656   -0.4741    0.0000 C   0  0  0  0  0  0  0  0  0  0  0  0
   -3.4656    0.3509    0.0000 C   0  0  0  0  0  0  0  0  0  0  0  0
   -2.7512    0.7634    0.0000 C   0  0  0  0  0  0  0  0  0  0  0  0
   -2.0367    0.3509    0.0000 C   0  0  0  0  0  0  0  0  0  0  0  0
  1  2  3  0  0  0  0
  2  3  1  0  0  0  0
  3  4  1  0  0  0  0
  4  5  1  0  0  0  0
  5  6  1  0  0  0  0
  6  7  4  0  0  0  0
  7  8  4  0  0  0  0
  8  9  4  0  0  0  0
  9 10  1  0  0  0  0
  9 11  4  0  0  0  0
 11 12  4  0  0  0  0
  6 12  4  0  0  0  0
  3 13  1  0  0  0  0
 13 14  1  0  0  0  0
 14 15  4  0  0  0  0
 15 16  4  0  0  0  0
 16 17  4  0  0  0  0
 17 18  4  0  0  0  0
 14 18  4  0  0  0  0
  3 19  1  0  0  0  0
 19 20  4  0  0  0  0
 20 21  4  0  0  0  0
 21 22  4  0  0  0  0
 22 23  4  0  0  0  0
 23 24  4  0  0  0  0
 19 24  4  0  0  0  0
M  END
> <activity>
22.8

> <InChiKey>
RQDJADAKIFFEKQ-UHFFFAOYSA-N

$$$$

  Mrv2220 08292413132D          

 11 11  0  0  0  0            999 V2000
    0.0000    3.3000    0.0000 C   0  0  0  0  0  0  0  0  0  0  0  0
    0.0000    2.4750    0.0000 C   0  0  0  0  0  0  0  0  0  0  0  0
    0.7145    2.0625    0.0000 C   0  0  0  0  0  0  0  0  0  0  0  0
    1.4289    2.4750    0.0000 C   0  0  0  0  0  0  0  0  0  0  0  0
    0.7145    1.2375    0.0000 C   0  0  0  0  0  0  0  0  0  0  0  0
    1.4289    0.8250    0.0000 C   0  0  0  0  0  0  0  0  0  0  0  0
    1.4289   -0.0000    0.0000 C   0  0  0  0  0  0  0  0  0  0  0  0
    0.7145   -0.4125    0.0000 C   0  0  0  0  0  0  0  0  0  0  0  0
    0.7145   -1.2375    0.0000 O   0  0  0  0  0  0  0  0  0  0  0  0
    0.0000    0.0000    0.0000 C   0  0  0  0  0  0  0  0  0  0  0  0
    0.0000    0.8250    0.0000 C   0  0  0  0  0  0  0  0  0  0  0  0
  1  2  1  0  0  0  0
  2  3  1  0  0  0  0
  3  4  1  0  0  0  0
  3  5  1  0  0  0  0
  5  6  4  0  0  0  0
  6  7  4  0  0  0  0
  7  8  4  0  0  0  0
  8  9  1  0  0  0  0
  8 10  4  0  0  0  0
 10 11  4  0  0  0  0
  5 11  4  0  0  0  0
M  END
> <activity>
97.5

> <InChiKey>
ZUTYZAFDFLLILI-UHFFFAOYSA-N

$$$$

  Mrv2220 08292413132D          

 12 12  0  0  0  0            999 V2000
    0.0000    3.3000    0.0000 C   0  0  0  0  0  0  0  0  0  0  0  0
    0.7145    2.8875    0.0000 C   0  0  0  0  0  0  0  0  0  0  0  0
    0.7145    2.0625    0.0000 C   0  0  0  0  0  0  0  0  0  0  0  0
   -0.1105    2.0625    0.0000 C   0  0  0  0  0  0  0  0  0  0  0  0
    1.5395    2.0625    0.0000 C   0  0  0  0  0  0  0  0  0  0  0  0
    0.7145    1.2375    0.0000 C   0  0  0  0  0  0  0  0  0  0  0  0
    1.4289    0.8250    0.0000 C   0  0  0  0  0  0  0  0  0  0  0  0
    1.4289   -0.0000    0.0000 C   0  0  0  0  0  0  0  0  0  0  0  0
    0.7145   -0.4125    0.0000 C   0  0  0  0  0  0  0  0  0  0  0  0
    0.7145   -1.2375    0.0000 O   0  0  0  0  0  0  0  0  0  0  0  0
    0.0000    0.0000    0.0000 C   0  0  0  0  0  0  0  0  0  0  0  0
    0.0000    0.8250    0.0000 C   0  0  0  0  0  0  0  0  0  0  0  0
  1  2  1  0  0  0  0
  2  3  1  0  0  0  0
  3  4  1  0  0  0  0
  3  5  1  0  0  0  0
  3  6  1  0  0  0  0
  6  7  1  0  0  0  0
  7  8  1  0  0  0  0
  8  9  1  0  0  0  0
  9 10  2  0  0  0  0
  9 11  1  0  0  0  0
 11 12  1  0  0  0  0
  6 12  1  0  0  0  0
M  END
> <activity>
19.8

> <InChiKey>
DCSKAMGZSIRJAQ-UHFFFAOYSA-N

$$$$

  Mrv2220 08292413132D          

  6  6  0  0  0  0            999 V2000
    0.5678    1.9393    0.0000 N   0  0  0  0  0  0  0  0  0  0  0  0
    0.5678    1.1143    0.0000 N   0  0  0  0  0  0  0  0  0  0  0  0
    1.2352    0.6294    0.0000 C   0  0  0  0  0  0  0  0  0  0  0  0
    0.9803   -0.1553    0.0000 N   0  0  0  0  0  0  0  0  0  0  0  0
    0.1553   -0.1553    0.0000 N   0  0  0  0  0  0  0  0  0  0  0  0
   -0.0997    0.6294    0.0000 C   0  0  0  0  0  0  0  0  0  0  0  0
  1  2  1  0  0  0  0
  2  3  4  0  0  0  0
  3  4  4  0  0  0  0
  4  5  4  0  0  0  0
  5  6  4  0  0  0  0
  2  6  4  0  0  0  0
M  END
> <activity>
4.6

> <InChiKey>
FMCUPJKTGNBGEC-UHFFFAOYSA-N

$$$$

  Mrv2220 08292413132D          

 10 10  0  0  0  0            999 V2000
    0.7145    2.0625    0.0000 N   0  0  0  0  0  0  0  0  0  0  0  0
    0.7145    1.2375    0.0000 C   0  0  0  0  0  0  0  0  0  0  0  0
    1.4289    0.8250    0.0000 C   0  0  0  0  0  0  0  0  0  0  0  0
    1.4289   -0.0000    0.0000 C   0  0  0  0  0  0  0  0  0  0  0  0
    0.7145   -0.4125    0.0000 C   0  0  0  0  0  0  0  0  0  0  0  0
    0.7145   -1.2375    0.0000 C   0  0  0  0  0  0  0  0  0  0  0  0
    1.4289   -1.6500    0.0000 O   0  0  0  0  0  0  0  0  0  0  0  0
   -0.0000   -1.6500    0.0000 O   0  0  0  0  0  0  0  0  0  0  0  0
    0.0000    0.0000    0.0000 C   0  0  0  0  0  0  0  0  0  0  0  0
    0.0000    0.8250    0.0000 C   0  0  0  0  0  0  0  0  0  0  0  0
  1  2  1  0  0  0  0
  2  3  4  0  0  0  0
  3  4  4  0  0  0  0
  4  5  4  0  0  0  0
  5  6  1  0  0  0  0
  6  7  2  0  0  0  0
  6  8  1  0  0  0  0
  5  9  4  0  0  0  0
  9 10  4  0  0  0  0
  2 10  4  0  0  0  0
M  END
> <activity>
-5.9

> <InChiKey>
ALYNCZNDIQEVRV-UHFFFAOYSA-N

$$$$

  Mrv2220 08292413132D          

 23 24  0  0  0  0            999 V2000
   -0.7145    1.2375    0.0000 C   0  0  0  0  0  0  0  0  0  0  0  0
    0.0000    0.8250    0.0000 C   0  0  0  0  0  0  0  0  0  0  0  0
    0.0000    0.0000    0.0000 O   0  0  0  0  0  0  0  0  0  0  0  0
    0.7145   -0.4125    0.0000 C   0  0  0  0  0  0  0  0  0  0  0  0
    0.7145   -1.2375    0.0000 N   0  0  0  0  0  0  0  0  0  0  0  0
    1.3819   -1.7224    0.0000 C   0  0  0  0  0  0  0  0  0  0  0  0
    2.1665   -1.4675    0.0000 C   0  0  0  0  0  0  0  0  0  0  0  0
    2.3381   -0.6605    0.0000 C   0  0  0  0  0  0  0  0  0  0  0  0
    3.1227   -0.4056    0.0000 C   0  0  0  0  0  0  0  0  0  0  0  0
    3.7358   -0.9576    0.0000 C   0  0  0  0  0  0  0  0  0  0  0  0
    4.5204   -0.7027    0.0000 Cl  0  0  0  0  0  0  0  0  0  0  0  0
    3.5642   -1.7646    0.0000 C   0  0  0  0  0  0  0  0  0  0  0  0
    2.7796   -2.0195    0.0000 C   0  0  0  0  0  0  0  0  0  0  0  0
    1.1270   -2.5070    0.0000 C   0  0  0  0  0  0  0  0  0  0  0  0
    1.6119   -3.1745    0.0000 C   0  0  0  0  0  0  0  0  0  0  0  0
    2.0968   -3.8419    0.0000 N   0  0  0  0  0  0  0  0  0  0  0  0
    0.3020   -2.5070    0.0000 C   0  0  0  0  0  0  0  0  0  0  0  0
   -0.1830   -3.1745    0.0000 Br  0  0  0  0  0  0  0  0  0  0  0  0
    0.0470   -1.7224    0.0000 C   0  0  0  0  0  0  0  0  0  0  0  0
   -0.7376   -1.4675    0.0000 C   0  0  0  0  0  0  0  0  0  0  0  0
   -1.5222   -1.2125    0.0000 F   0  0  0  0  0  0  0  0  0  0  0  0
   -0.4827   -0.6829    0.0000 F   0  0  0  0  0  0  0  0  0  0  0  0
   -0.9925   -2.2521    0.0000 F   0  0  0  0  0  0  0  0  0  0  0  0
  1  2  1  0  0  0  0
  2  3  1  0  0  0  0
  3  4  1  0  0  0  0
  4  5  1  0  0  0  0
  5  6  4  0  0  0  0
  6  7  1  0  0  0  0
  7  8  4  0  0  0  0
  8  9  4  0  0  0  0
  9 10  4  0  0  0  0
 10 11  1  0  0  0  0
 10 12  4  0  0  0  0
 12 13  4  0  0  0  0
  7 13  4  0  0  0  0
  6 14  4  0  0  0  0
 14 15  1  0  0  0  0
 15 16  3  0  0  0  0
 14 17  4  0  0  0  0
 17 18  1  0  0  0  0
 17 19  4  0  0  0  0
  5 19  4  0  0  0  0
 19 20  1  0  0  0  0
 20 21  1  0  0  0  0
 20 22  1  0  0  0  0
 20 23  1  0  0  0  0
M  END
> <activity>
94.6

> <InChiKey>
CWFOCCVIPCEQCK-UHFFFAOYSA-N

$$$$

  Mrv2220 08292413132D          

 11 11  0  0  0  0            999 V2000
   -0.7145    3.7125    0.0000 C   0  0  0  0  0  0  0  0  0  0  0  0
    0.0000    3.3000    0.0000 C   0  0  0  0  0  0  0  0  0  0  0  0
    0.0000    2.4750    0.0000 C   0  0  0  0  0  0  0  0  0  0  0  0
    0.7145    2.0625    0.0000 C   0  0  0  0  0  0  0  0  0  0  0  0
    0.7145    1.2375    0.0000 C   0  0  0  0  0  0  0  0  0  0  0  0
    1.4289    0.8250    0.0000 C   0  0  0  0  0  0  0  0  0  0  0  0
    1.4289   -0.0000    0.0000 C   0  0  0  0  0  0  0  0  0  0  0  0
    0.7145   -0.4125    0.0000 C   0  0  0  0  0  0  0  0  0  0  0  0
    0.7145   -1.2375    0.0000 Cl  0  0  0  0  0  0  0  0  0  0  0  0
    0.0000    0.0000    0.0000 C   0  0  0  0  0  0  0  0  0  0  0  0
    0.0000    0.8250    0.0000 C   0  0  0  0  0  0  0  0  0  0  0  0
  1  2  1  0  0  0  0
  2  3  1  0  0  0  0
  3  4  1  0  0  0  0
  4  5  1  0  0  0  0
  5  6  4  0  0  0  0
  6  7  4  0  0  0  0
  7  8  4  0  0  0  0
  8  9  1  0  0  0  0
  8 10  4  0  0  0  0
 10 11  4  0  0  0  0
  5 11  4  0  0  0  0
M  END
> <activity>
15.3

> <InChiKey>
SKNUPXIXICTRJE-UHFFFAOYSA-N

$$$$

  Mrv2220 08292413132D          

 21 22  0  0  0  0            999 V2000
    0.7145    6.7661    0.0000 C   0  0  0  0  0  0  0  0  0  0  0  0
    0.7145    5.9411    0.0000 C   0  0  0  0  0  0  0  0  0  0  0  0
    1.4289    5.5286    0.0000 C   0  0  0  0  0  0  0  0  0  0  0  0
    1.4289    4.7036    0.0000 C   0  0  0  0  0  0  0  0  0  0  0  0
    0.7145    4.2911    0.0000 C   0  0  0  0  0  0  0  0  0  0  0  0
    0.7145    3.4661    0.0000 C   0  0  0  0  0  0  0  0  0  0  0  0
    1.3819    2.9812    0.0000 C   0  0  0  0  0  0  0  0  0  0  0  0
    2.1665    3.2361    0.0000 Cl  0  0  0  0  0  0  0  0  0  0  0  0
    1.1270    2.1965    0.0000 N   0  0  0  0  0  0  0  0  0  0  0  0
    0.3020    2.1965    0.0000 C   0  0  0  0  0  0  0  0  0  0  0  0
   -0.1830    1.5291    0.0000 C   0  0  0  0  0  0  0  0  0  0  0  0
   -0.6679    0.8617    0.0000 N   0  0  0  0  0  0  0  0  0  0  0  0
    0.0470    2.9812    0.0000 N   0  0  0  0  0  0  0  0  0  0  0  0
   -0.7376    3.2361    0.0000 S   0  0  0  0  0  0  0  0  0  0  0  0
   -0.9925    2.4515    0.0000 O   0  0  0  0  0  0  0  0  0  0  0  0
   -0.4827    4.0207    0.0000 O   0  0  0  0  0  0  0  0  0  0  0  0
   -1.5222    3.4910    0.0000 N   0  0  0  0  0  0  0  0  0  0  0  0
   -2.1353    2.9390    0.0000 C   0  0  0  0  0  0  0  0  0  0  0  0
   -1.6937    4.2980    0.0000 C   0  0  0  0  0  0  0  0  0  0  0  0
    0.0000    4.7036    0.0000 C   0  0  0  0  0  0  0  0  0  0  0  0
    0.0000    5.5286    0.0000 C   0  0  0  0  0  0  0  0  0  0  0  0
  1  2  1  0  0  0  0
  2  3  4  0  0  0  0
  3  4  4  0  0  0  0
  4  5  4  0  0  0  0
  5  6  1  0  0  0  0
  6  7  4  0  0  0  0
  7  8  1  0  0  0  0
  7  9  4  0  0  0  0
  9 10  4  0  0  0  0
 10 11  1  0  0  0  0
 11 12  3  0  0  0  0
 10 13  4  0  0  0  0
  6 13  4  0  0  0  0
 13 14  1  0  0  0  0
 14 15  2  0  0  0  0
 14 16  2  0  0  0  0
 14 17  1  0  0  0  0
 17 18  1  0  0  0  0
 17 19  1  0  0  0  0
  5 20  4  0  0  0  0
 20 21  4  0  0  0  0
  2 21  4  0  0  0  0
M  END
> <activity>
103.3

> <InChiKey>
YXKMMRDKEKCERS-UHFFFAOYSA-N

$$$$

  Mrv2220 08292413132D          

  9  9  0  0  0  0            999 V2000
    0.7145    2.0625    0.0000 C   0  0  0  0  0  0  0  0  0  0  0  0
    0.7145    1.2375    0.0000 C   0  0  0  0  0  0  0  0  0  0  0  0
    1.4289    0.8250    0.0000 C   0  0  0  0  0  0  0  0  0  0  0  0
    1.4289   -0.0000    0.0000 C   0  0  0  0  0  0  0  0  0  0  0  0
    2.1434   -0.4125    0.0000 O   0  0  0  0  0  0  0  0  0  0  0  0
    0.7145   -0.4125    0.0000 C   0  0  0  0  0  0  0  0  0  0  0  0
    0.0000    0.0000    0.0000 C   0  0  0  0  0  0  0  0  0  0  0  0
    0.0000    0.8250    0.0000 C   0  0  0  0  0  0  0  0  0  0  0  0
   -0.7145    1.2375    0.0000 Cl  0  0  0  0  0  0  0  0  0  0  0  0
  1  2  1  0  0  0  0
  2  3  4  0  0  0  0
  3  4  4  0  0  0  0
  4  5  1  0  0  0  0
  4  6  4  0  0  0  0
  6  7  4  0  0  0  0
  7  8  4  0  0  0  0
  2  8  4  0  0  0  0
  8  9  1  0  0  0  0
M  END
> <activity>
85.8

> <InChiKey>
CFKMVGJGLGKFKI-UHFFFAOYSA-N

$$$$

  Mrv2220 08292413132D          

 11 11  0  0  0  0            999 V2000
    0.7145    2.0625    0.0000 Cl  0  0  0  0  0  0  0  0  0  0  0  0
    0.7145    1.2375    0.0000 C   0  0  0  0  0  0  0  0  0  0  0  0
    1.4289    0.8250    0.0000 C   0  0  0  0  0  0  0  0  0  0  0  0
    1.4289   -0.0000    0.0000 C   0  0  0  0  0  0  0  0  0  0  0  0
    0.7145   -0.4125    0.0000 C   0  0  0  0  0  0  0  0  0  0  0  0
    0.7145   -1.2375    0.0000 C   0  0  0  0  0  0  0  0  0  0  0  0
    0.7145   -2.0625    0.0000 Cl  0  0  0  0  0  0  0  0  0  0  0  0
   -0.1105   -1.2375    0.0000 Cl  0  0  0  0  0  0  0  0  0  0  0  0
    1.5395   -1.2375    0.0000 Cl  0  0  0  0  0  0  0  0  0  0  0  0
    0.0000    0.0000    0.0000 C   0  0  0  0  0  0  0  0  0  0  0  0
    0.0000    0.8250    0.0000 C   0  0  0  0  0  0  0  0  0  0  0  0
  1  2  1  0  0  0  0
  2  3  4  0  0  0  0
  3  4  4  0  0  0  0
  4  5  4  0  0  0  0
  5  6  1  0  0  0  0
  6  7  1  0  0  0  0
  6  8  1  0  0  0  0
  6  9  1  0  0  0  0
  5 10  4  0  0  0  0
 10 11  4  0  0  0  0
  2 11  4  0  0  0  0
M  END
> <activity>
98.8

> <InChiKey>
LVZPKYYPPLUECL-UHFFFAOYSA-N

$$$$

  Mrv2220 08292413132D          

  8  8  0  0  0  0            999 V2000
    0.7145    2.0625    0.0000 O   0  0  0  0  0  0  0  0  0  0  0  0
    0.7145    1.2375    0.0000 C   0  0  0  0  0  0  0  0  0  0  0  0
    1.4289    0.8250    0.0000 C   0  0  0  0  0  0  0  0  0  0  0  0
    1.4289   -0.0000    0.0000 C   0  0  0  0  0  0  0  0  0  0  0  0
    0.7145   -0.4125    0.0000 C   0  0  0  0  0  0  0  0  0  0  0  0
    0.7145   -1.2375    0.0000 Cl  0  0  0  0  0  0  0  0  0  0  0  0
    0.0000    0.0000    0.0000 C   0  0  0  0  0  0  0  0  0  0  0  0
    0.0000    0.8250    0.0000 C   0  0  0  0  0  0  0  0  0  0  0  0
  1  2  1  0  0  0  0
  2  3  4  0  0  0  0
  3  4  4  0  0  0  0
  4  5  4  0  0  0  0
  5  6  1  0  0  0  0
  5  7  4  0  0  0  0
  7  8  4  0  0  0  0
  2  8  4  0  0  0  0
M  END
> <activity>
55.3

> <InChiKey>
WXNZTHHGJRFXKQ-UHFFFAOYSA-N

$$$$

  Mrv2220 08292413132D          

 12 12  0  0  0  0            999 V2000
   -0.7145    3.7125    0.0000 O   0  0  0  0  0  0  0  0  0  0  0  0
    0.0000    3.3000    0.0000 C   0  0  0  0  0  0  0  0  0  0  0  0
    0.7145    3.7125    0.0000 O   0  0  0  0  0  0  0  0  0  0  0  0
    0.0000    2.4750    0.0000 C   0  0  0  0  0  0  0  0  0  0  0  0
    0.7145    2.0625    0.0000 O   0  0  0  0  0  0  0  0  0  0  0  0
    0.7145    1.2375    0.0000 C   0  0  0  0  0  0  0  0  0  0  0  0
    1.4289    0.8250    0.0000 C   0  0  0  0  0  0  0  0  0  0  0  0
    1.4289   -0.0000    0.0000 C   0  0  0  0  0  0  0  0  0  0  0  0
    0.7145   -0.4125    0.0000 C   0  0  0  0  0  0  0  0  0  0  0  0
    0.7145   -1.2375    0.0000 Cl  0  0  0  0  0  0  0  0  0  0  0  0
    0.0000    0.0000    0.0000 C   0  0  0  0  0  0  0  0  0  0  0  0
    0.0000    0.8250    0.0000 C   0  0  0  0  0  0  0  0  0  0  0  0
  1  2  2  0  0  0  0
  2  3  1  0  0  0  0
  2  4  1  0  0  0  0
  4  5  1  0  0  0  0
  5  6  1  0  0  0  0
  6  7  4  0  0  0  0
  7  8  4  0  0  0  0
  8  9  4  0  0  0  0
  9 10  1  0  0  0  0
  9 11  4  0  0  0  0
 11 12  4  0  0  0  0
  6 12  4  0  0  0  0
M  END
> <activity>
34.8

> <InChiKey>
SODPIMGUZLOIPE-UHFFFAOYSA-N

$$$$

  Mrv2220 08292413132D          

 11 11  0  0  0  0            999 V2000
    0.0000    3.3000    0.0000 N   0  0  0  0  0  0  0  0  0  0  0  0
    0.0000    2.4750    0.0000 C   0  0  0  0  0  0  0  0  0  0  0  0
   -0.7145    2.0625    0.0000 O   0  0  0  0  0  0  0  0  0  0  0  0
    0.7145    2.0625    0.0000 N   0  0  0  0  0  0  0  0  0  0  0  0
    0.7145    1.2375    0.0000 C   0  0  0  0  0  0  0  0  0  0  0  0
    1.4289    0.8250    0.0000 C   0  0  0  0  0  0  0  0  0  0  0  0
    1.4289   -0.0000    0.0000 C   0  0  0  0  0  0  0  0  0  0  0  0
    0.7145   -0.4125    0.0000 C   0  0  0  0  0  0  0  0  0  0  0  0
    0.7145   -1.2375    0.0000 Cl  0  0  0  0  0  0  0  0  0  0  0  0
    0.0000    0.0000    0.0000 C   0  0  0  0  0  0  0  0  0  0  0  0
    0.0000    0.8250    0.0000 C   0  0  0  0  0  0  0  0  0  0  0  0
  1  2  1  0  0  0  0
  2  3  2  0  0  0  0
  2  4  1  0  0  0  0
  4  5  1  0  0  0  0
  5  6  4  0  0  0  0
  6  7  4  0  0  0  0
  7  8  4  0  0  0  0
  8  9  1  0  0  0  0
  8 10  4  0  0  0  0
 10 11  4  0  0  0  0
  5 11  4  0  0  0  0
M  END
> <activity>
19.0

> <InChiKey>
RECCURWJDVZHIH-UHFFFAOYSA-N

$$$$

  Mrv2220 08292413132D          

 16 17  0  0  0  0            999 V2000
    1.5395   -1.2375    0.0000 C   0  0  0  0  0  0  0  0  0  0  0  0
    0.7145   -1.2375    0.0000 C   0  0  0  0  0  0  0  0  0  0  0  0
   -0.1105   -1.2375    0.0000 C   0  0  0  0  0  0  0  0  0  0  0  0
    0.7145   -2.0625    0.0000 C   0  0  0  0  0  0  0  0  0  0  0  0
    1.4289   -2.4750    0.0000 C   0  0  0  0  0  0  0  0  0  0  0  0
    1.4289   -3.3000    0.0000 C   0  0  0  0  0  0  0  0  0  0  0  0
    0.7145   -3.7125    0.0000 C   0  0  0  0  0  0  0  0  0  0  0  0
    0.0000   -3.3000    0.0000 C   0  0  0  0  0  0  0  0  0  0  0  0
    0.0000   -2.4750    0.0000 C   0  0  0  0  0  0  0  0  0  0  0  0
    0.7145   -0.4125    0.0000 C   0  0  0  0  0  0  0  0  0  0  0  0
    0.0000    0.0000    0.0000 C   0  0  0  0  0  0  0  0  0  0  0  0
    0.0000    0.8250    0.0000 C   0  0  0  0  0  0  0  0  0  0  0  0
    0.7145    1.2375    0.0000 C   0  0  0  0  0  0  0  0  0  0  0  0
    0.7145    2.0625    0.0000 O   0  0  0  0  0  0  0  0  0  0  0  0
    1.4289    0.8250    0.0000 C   0  0  0  0  0  0  0  0  0  0  0  0
    1.4289   -0.0000    0.0000 C   0  0  0  0  0  0  0  0  0  0  0  0
  1  2  1  0  0  0  0
  2  3  1  0  0  0  0
  2  4  1  0  0  0  0
  4  5  4  0  0  0  0
  5  6  4  0  0  0  0
  6  7  4  0  0  0  0
  7  8  4  0  0  0  0
  8  9  4  0  0  0  0
  4  9  4  0  0  0  0
  2 10  1  0  0  0  0
 10 11  4  0  0  0  0
 11 12  4  0  0  0  0
 12 13  4  0  0  0  0
 13 14  1  0  0  0  0
 13 15  4  0  0  0  0
 15 16  4  0  0  0  0
 10 16  4  0  0  0  0
M  END
> <activity>
103.1

> <InChiKey>
QBDSZLJBMIMQRS-UHFFFAOYSA-N

$$$$

  Mrv2220 08292413132D          

 13 14  0  0  0  0            999 V2000
    0.7145   -0.4125    0.0000 O   0  0  0  0  0  0  0  0  0  0  0  0
    0.7145   -1.2375    0.0000 C   0  0  0  0  0  0  0  0  0  0  0  0
    1.4289   -1.6500    0.0000 C   0  0  0  0  0  0  0  0  0  0  0  0
    1.4289   -2.4750    0.0000 C   0  0  0  0  0  0  0  0  0  0  0  0
    0.7145   -2.8875    0.0000 C   0  0  0  0  0  0  0  0  0  0  0  0
    0.7145   -3.7125    0.0000 C   0  0  0  0  0  0  0  0  0  0  0  0
    1.4289   -4.1250    0.0000 C   0  0  0  0  0  0  0  0  0  0  0  0
    1.4289   -4.9500    0.0000 C   0  0  0  0  0  0  0  0  0  0  0  0
    0.7145   -5.3625    0.0000 C   0  0  0  0  0  0  0  0  0  0  0  0
    0.0000   -4.9500    0.0000 C   0  0  0  0  0  0  0  0  0  0  0  0
    0.0000   -4.1250    0.0000 C   0  0  0  0  0  0  0  0  0  0  0  0
    0.0000   -2.4750    0.0000 C   0  0  0  0  0  0  0  0  0  0  0  0
    0.0000   -1.6500    0.0000 C   0  0  0  0  0  0  0  0  0  0  0  0
  1  2  2  0  0  0  0
  2  3  1  0  0  0  0
  3  4  1  0  0  0  0
  4  5  1  0  0  0  0
  5  6  1  0  0  0  0
  6  7  1  0  0  0  0
  7  8  1  0  0  0  0
  8  9  1  0  0  0  0
  9 10  1  0  0  0  0
 10 11  1  0  0  0  0
  6 11  1  0  0  0  0
  5 12  1  0  0  0  0
 12 13  1  0  0  0  0
  2 13  1  0  0  0  0
M  END
> <activity>
53.6

> <InChiKey>
JLYNSPSTPQAEAX-UHFFFAOYSA-N

$$$$

  Mrv2220 08292413132D          

 18 18  0  0  0  0            999 V2000
    3.5724   -7.8375    0.0000 C   0  0  0  0  0  0  0  0  0  0  0  0
    4.2868   -7.4250    0.0000 C   0  0  0  0  0  0  0  0  0  0  0  0
    5.0013   -7.8375    0.0000 C   0  0  0  0  0  0  0  0  0  0  0  0
    5.7158   -7.4250    0.0000 C   0  0  0  0  0  0  0  0  0  0  0  0
    6.4302   -7.8375    0.0000 C   0  0  0  0  0  0  0  0  0  0  0  0
    7.1447   -7.4250    0.0000 C   0  0  0  0  0  0  0  0  0  0  0  0
    7.8592   -7.8375    0.0000 C   0  0  0  0  0  0  0  0  0  0  0  0
    8.5737   -7.4250    0.0000 C   0  0  0  0  0  0  0  0  0  0  0  0
    9.2881   -7.8375    0.0000 C   0  0  0  0  0  0  0  0  0  0  0  0
   10.0026   -7.4250    0.0000 C   0  0  0  0  0  0  0  0  0  0  0  0
   10.7171   -7.8375    0.0000 C   0  0  0  0  0  0  0  0  0  0  0  0
   11.4315   -7.4250    0.0000 C   0  0  0  0  0  0  0  0  0  0  0  0
   12.1460   -7.8375    0.0000 N   0  0  0  0  0  0  0  0  0  0  0  0
   12.8605   -7.4250    0.0000 C   0  0  0  0  0  0  0  0  0  0  0  0
   13.5749   -7.8375    0.0000 C   0  0  0  0  0  0  0  0  0  0  0  0
   13.5749   -8.6625    0.0000 O   0  0  0  0  0  0  0  0  0  0  0  0
   12.8605   -9.0750    0.0000 C   0  0  0  0  0  0  0  0  0  0  0  0
   12.1460   -8.6625    0.0000 C   0  0  0  0  0  0  0  0  0  0  0  0
  1  2  1  0  0  0  0
  2  3  1  0  0  0  0
  3  4  1  0  0  0  0
  4  5  1  0  0  0  0
  5  6  1  0  0  0  0
  6  7  1  0  0  0  0
  7  8  1  0  0  0  0
  8  9  1  0  0  0  0
  9 10  1  0  0  0  0
 10 11  1  0  0  0  0
 11 12  1  0  0  0  0
 12 13  1  0  0  0  0
 13 14  1  0  0  0  0
 14 15  1  0  0  0  0
 15 16  1  0  0  0  0
 16 17  1  0  0  0  0
 17 18  1  0  0  0  0
 13 18  1  0  0  0  0
M  END
> <activity>
38.8

> <InChiKey>
ZRIILUSQBDFVNY-UHFFFAOYSA-N

$$$$

  Mrv2220 08292413132D          

 19 19  0  0  0  0            999 V2000
    3.5724   -7.8375    0.0000 C   0  0  0  0  0  0  0  0  0  0  0  0
    4.2868   -7.4250    0.0000 C   0  0  0  0  0  0  0  0  0  0  0  0
    5.0013   -7.8375    0.0000 C   0  0  0  0  0  0  0  0  0  0  0  0
    5.7158   -7.4250    0.0000 C   0  0  0  0  0  0  0  0  0  0  0  0
    6.4302   -7.8375    0.0000 C   0  0  0  0  0  0  0  0  0  0  0  0
    7.1447   -7.4250    0.0000 C   0  0  0  0  0  0  0  0  0  0  0  0
    7.8592   -7.8375    0.0000 C   0  0  0  0  0  0  0  0  0  0  0  0
    8.5737   -7.4250    0.0000 C   0  0  0  0  0  0  0  0  0  0  0  0
    9.2881   -7.8375    0.0000 C   0  0  0  0  0  0  0  0  0  0  0  0
   10.0026   -7.4250    0.0000 C   0  0  0  0  0  0  0  0  0  0  0  0
   10.7171   -7.8375    0.0000 C   0  0  0  0  0  0  0  0  0  0  0  0
   11.4315   -7.4250    0.0000 C   0  0  0  0  0  0  0  0  0  0  0  0
   12.1460   -7.8375    0.0000 C   0  0  0  0  0  0  0  0  0  0  0  0
   12.8605   -7.4250    0.0000 C   0  0  0  0  0  0  0  0  0  0  0  0
   13.5749   -7.8375    0.0000 C   0  0  0  0  0  0  0  0  0  0  0  0
   13.5749   -8.6625    0.0000 C   0  0  0  0  0  0  0  0  0  0  0  0
   14.2894   -9.0750    0.0000 O   0  0  0  0  0  0  0  0  0  0  0  0
   12.8605   -9.0750    0.0000 C   0  0  0  0  0  0  0  0  0  0  0  0
   12.1460   -8.6625    0.0000 C   0  0  0  0  0  0  0  0  0  0  0  0
  1  2  1  0  0  0  0
  2  3  1  0  0  0  0
  3  4  1  0  0  0  0
  4  5  1  0  0  0  0
  5  6  1  0  0  0  0
  6  7  1  0  0  0  0
  7  8  1  0  0  0  0
  8  9  1  0  0  0  0
  9 10  1  0  0  0  0
 10 11  1  0  0  0  0
 11 12  1  0  0  0  0
 12 13  1  0  0  0  0
 13 14  4  0  0  0  0
 14 15  4  0  0  0  0
 15 16  4  0  0  0  0
 16 17  1  0  0  0  0
 16 18  4  0  0  0  0
 18 19  4  0  0  0  0
 13 19  4  0  0  0  0
M  END
> <activity>
100.3

> <InChiKey>
KJWMCPYEODZESQ-UHFFFAOYSA-N

$$$$

  Mrv2220 08292413132D          

 10 10  0  0  0  0            999 V2000
    0.0000    3.3000    0.0000 C   0  0  0  0  0  0  0  0  0  0  0  0
    0.0000    2.4750    0.0000 C   0  0  0  0  0  0  0  0  0  0  0  0
    0.7145    2.0625    0.0000 O   0  0  0  0  0  0  0  0  0  0  0  0
    0.7145    1.2375    0.0000 C   0  0  0  0  0  0  0  0  0  0  0  0
    1.4289    0.8250    0.0000 C   0  0  0  0  0  0  0  0  0  0  0  0
    1.4289   -0.0000    0.0000 C   0  0  0  0  0  0  0  0  0  0  0  0
    0.7145   -0.4125    0.0000 C   0  0  0  0  0  0  0  0  0  0  0  0
    0.7145   -1.2375    0.0000 N   0  0  0  0  0  0  0  0  0  0  0  0
    0.0000    0.0000    0.0000 C   0  0  0  0  0  0  0  0  0  0  0  0
    0.0000    0.8250    0.0000 C   0  0  0  0  0  0  0  0  0  0  0  0
  1  2  1  0  0  0  0
  2  3  1  0  0  0  0
  3  4  1  0  0  0  0
  4  5  4  0  0  0  0
  5  6  4  0  0  0  0
  6  7  4  0  0  0  0
  7  8  1  0  0  0  0
  7  9  4  0  0  0  0
  9 10  4  0  0  0  0
  4 10  4  0  0  0  0
M  END
> <activity>
7.8

> <InChiKey>
IMPPGHMHELILKG-UHFFFAOYSA-N

$$$$

  Mrv2220 08292413132D          

  8  8  0  0  0  0            999 V2000
    1.2822    2.3518    0.0000 C   0  0  0  0  0  0  0  0  0  0  0  0
    0.5678    1.9393    0.0000 C   0  0  0  0  0  0  0  0  0  0  0  0
    0.5678    1.1143    0.0000 C   0  0  0  0  0  0  0  0  0  0  0  0
    1.2352    0.6294    0.0000 C   0  0  0  0  0  0  0  0  0  0  0  0
    0.9803   -0.1553    0.0000 O   0  0  0  0  0  0  0  0  0  0  0  0
    0.1553   -0.1553    0.0000 C   0  0  0  0  0  0  0  0  0  0  0  0
   -0.3297   -0.8227    0.0000 O   0  0  0  0  0  0  0  0  0  0  0  0
   -0.0997    0.6294    0.0000 O   0  0  0  0  0  0  0  0  0  0  0  0
  1  2  1  0  0  0  0
  2  3  1  0  0  0  0
  3  4  1  0  0  0  0
  4  5  1  0  0  0  0
  5  6  1  0  0  0  0
  6  7  2  0  0  0  0
  6  8  1  0  0  0  0
  3  8  1  0  0  0  0
M  END
> <activity>
15.2

> <InChiKey>
ZZXUZKXVROWEIF-UHFFFAOYSA-N

$$$$

  Mrv2220 08292413132D          

 14 14  0  0  0  0            999 V2000
    0.7145   -3.7125    0.0000 C   0  0  0  0  0  0  0  0  0  0  0  0
    1.4289   -4.1250    0.0000 C   0  0  0  0  0  0  0  0  0  0  0  0
    2.1434   -3.7125    0.0000 C   0  0  0  0  0  0  0  0  0  0  0  0
    2.8579   -4.1250    0.0000 C   0  0  0  0  0  0  0  0  0  0  0  0
    3.5724   -3.7125    0.0000 C   0  0  0  0  0  0  0  0  0  0  0  0
    4.2868   -4.1250    0.0000 C   0  0  0  0  0  0  0  0  0  0  0  0
    5.0013   -3.7125    0.0000 O   0  0  0  0  0  0  0  0  0  0  0  0
    5.7158   -4.1250    0.0000 C   0  0  0  0  0  0  0  0  0  0  0  0
    6.4302   -3.7125    0.0000 C   0  0  0  0  0  0  0  0  0  0  0  0
    7.1447   -4.1250    0.0000 C   0  0  0  0  0  0  0  0  0  0  0  0
    7.1447   -4.9500    0.0000 C   0  0  0  0  0  0  0  0  0  0  0  0
    7.8592   -5.3625    0.0000 N   0  0  0  0  0  0  0  0  0  0  0  0
    6.4302   -5.3625    0.0000 C   0  0  0  0  0  0  0  0  0  0  0  0
    5.7158   -4.9500    0.0000 C   0  0  0  0  0  0  0  0  0  0  0  0
  1  2  1  0  0  0  0
  2  3  1  0  0  0  0
  3  4  1  0  0  0  0
  4  5  1  0  0  0  0
  5  6  1  0  0  0  0
  6  7  1  0  0  0  0
  7  8  1  0  0  0  0
  8  9  4  0  0  0  0
  9 10  4  0  0  0  0
 10 11  4  0  0  0  0
 11 12  1  0  0  0  0
 11 13  4  0  0  0  0
 13 14  4  0  0  0  0
  8 14  4  0  0  0  0
M  END
> <activity>
94.7

> <InChiKey>
DJRKHTCUXRGYEU-UHFFFAOYSA-N

$$$$

  Mrv2220 08292413132D          

 10 10  0  0  0  0            999 V2000
    0.0000    2.4750    0.0000 C   0  0  0  0  0  0  0  0  0  0  0  0
    0.7145    2.0625    0.0000 C   0  0  0  0  0  0  0  0  0  0  0  0
    1.4289    2.4750    0.0000 O   0  0  0  0  0  0  0  0  0  0  0  0
    0.7145    1.2375    0.0000 C   0  0  0  0  0  0  0  0  0  0  0  0
    1.4289    0.8250    0.0000 C   0  0  0  0  0  0  0  0  0  0  0  0
    1.4289   -0.0000    0.0000 C   0  0  0  0  0  0  0  0  0  0  0  0
    0.7145   -0.4125    0.0000 C   0  0  0  0  0  0  0  0  0  0  0  0
    0.7145   -1.2375    0.0000 O   0  0  0  0  0  0  0  0  0  0  0  0
    0.0000    0.0000    0.0000 C   0  0  0  0  0  0  0  0  0  0  0  0
    0.0000    0.8250    0.0000 C   0  0  0  0  0  0  0  0  0  0  0  0
  1  2  1  0  0  0  0
  2  3  2  0  0  0  0
  2  4  1  0  0  0  0
  4  5  4  0  0  0  0
  5  6  4  0  0  0  0
  6  7  4  0  0  0  0
  7  8  1  0  0  0  0
  7  9  4  0  0  0  0
  9 10  4  0  0  0  0
  4 10  4  0  0  0  0
M  END
> <activity>
36.7

> <InChiKey>
TXFPEBPIARQUIG-UHFFFAOYSA-N

$$$$

  Mrv2220 08292413132D          

 10 10  0  0  0  0            999 V2000
    0.0000    2.4750    0.0000 O   0  0  0  0  0  0  0  0  0  0  0  0
    0.7145    2.0625    0.0000 C   0  0  0  0  0  0  0  0  0  0  0  0
    1.4289    2.4750    0.0000 O   0  0  0  0  0  0  0  0  0  0  0  0
    0.7145    1.2375    0.0000 C   0  0  0  0  0  0  0  0  0  0  0  0
    1.4289    0.8250    0.0000 C   0  0  0  0  0  0  0  0  0  0  0  0
    1.4289   -0.0000    0.0000 C   0  0  0  0  0  0  0  0  0  0  0  0
    0.7145   -0.4125    0.0000 C   0  0  0  0  0  0  0  0  0  0  0  0
    0.7145   -1.2375    0.0000 O   0  0  0  0  0  0  0  0  0  0  0  0
    0.0000    0.0000    0.0000 C   0  0  0  0  0  0  0  0  0  0  0  0
    0.0000    0.8250    0.0000 C   0  0  0  0  0  0  0  0  0  0  0  0
  1  2  2  0  0  0  0
  2  3  1  0  0  0  0
  2  4  1  0  0  0  0
  4  5  4  0  0  0  0
  5  6  4  0  0  0  0
  6  7  4  0  0  0  0
  7  8  1  0  0  0  0
  7  9  4  0  0  0  0
  9 10  4  0  0  0  0
  4 10  4  0  0  0  0
M  END
> <activity>
84.3

> <InChiKey>
FJKROLUGYXJWQN-UHFFFAOYSA-N

$$$$

  Mrv2220 08292413132D          

 10 10  0  0  0  0            999 V2000
    0.0000    2.4750    0.0000 C   0  0  0  0  0  0  0  0  0  0  0  0
    0.7145    2.0625    0.0000 C   0  0  0  0  0  0  0  0  0  0  0  0
    1.4289    2.4750    0.0000 C   0  0  0  0  0  0  0  0  0  0  0  0
    0.7145    1.2375    0.0000 C   0  0  0  0  0  0  0  0  0  0  0  0
    1.4289    0.8250    0.0000 C   0  0  0  0  0  0  0  0  0  0  0  0
    1.4289   -0.0000    0.0000 C   0  0  0  0  0  0  0  0  0  0  0  0
    0.7145   -0.4125    0.0000 C   0  0  0  0  0  0  0  0  0  0  0  0
    0.7145   -1.2375    0.0000 O   0  0  0  0  0  0  0  0  0  0  0  0
    0.0000    0.0000    0.0000 C   0  0  0  0  0  0  0  0  0  0  0  0
    0.0000    0.8250    0.0000 C   0  0  0  0  0  0  0  0  0  0  0  0
  1  2  1  0  0  0  0
  2  3  1  0  0  0  0
  2  4  1  0  0  0  0
  4  5  4  0  0  0  0
  5  6  4  0  0  0  0
  6  7  4  0  0  0  0
  7  8  1  0  0  0  0
  7  9  4  0  0  0  0
  9 10  4  0  0  0  0
  4 10  4  0  0  0  0
M  END
> <activity>
73.2

> <InChiKey>
YQUQWHNMBPIWGK-UHFFFAOYSA-N

$$$$

  Mrv2220 08292413132D          

 10 10  0  0  0  0            999 V2000
    0.0000    2.4750    0.0000 C   0  0  0  0  0  0  0  0  0  0  0  0
    0.7145    2.0625    0.0000 O   0  0  0  0  0  0  0  0  0  0  0  0
    0.7145    1.2375    0.0000 C   0  0  0  0  0  0  0  0  0  0  0  0
    1.4289    0.8250    0.0000 C   0  0  0  0  0  0  0  0  0  0  0  0
    1.4289   -0.0000    0.0000 C   0  0  0  0  0  0  0  0  0  0  0  0
    0.7145   -0.4125    0.0000 C   0  0  0  0  0  0  0  0  0  0  0  0
    0.7145   -1.2375    0.0000 C   0  0  0  0  0  0  0  0  0  0  0  0
    1.4289   -1.6500    0.0000 O   0  0  0  0  0  0  0  0  0  0  0  0
    0.0000    0.0000    0.0000 C   0  0  0  0  0  0  0  0  0  0  0  0
    0.0000    0.8250    0.0000 C   0  0  0  0  0  0  0  0  0  0  0  0
  1  2  1  0  0  0  0
  2  3  1  0  0  0  0
  3  4  4  0  0  0  0
  4  5  4  0  0  0  0
  5  6  4  0  0  0  0
  6  7  1  0  0  0  0
  7  8  2  0  0  0  0
  6  9  4  0  0  0  0
  9 10  4  0  0  0  0
  3 10  4  0  0  0  0
M  END
> <activity>
25.0

> <InChiKey>
ZRSNZINYAWTAHE-UHFFFAOYSA-N

$$$$

  Mrv2220 08292413132D          

  7  6  0  0  0  0            999 V2000
    1.2375    2.1434    0.0000 C   0  0  0  0  0  0  0  0  0  0  0  0
    0.8250    1.4289    0.0000 C   0  0  0  0  0  0  0  0  0  0  0  0
   -0.0000    1.4289    0.0000 C   0  0  0  0  0  0  0  0  0  0  0  0
    1.2375    0.7145    0.0000 C   0  0  0  0  0  0  0  0  0  0  0  0
    0.8250    0.0000    0.0000 C   0  0  0  0  0  0  0  0  0  0  0  0
    1.2375   -0.7145    0.0000 C   0  0  0  0  0  0  0  0  0  0  0  0
    0.0000    0.0000    0.0000 O   0  0  0  0  0  0  0  0  0  0  0  0
  1  2  1  0  0  0  0
  2  3  1  0  0  0  0
  2  4  1  0  0  0  0
  4  5  1  0  0  0  0
  5  6  1  0  0  0  0
  5  7  1  0  0  0  0
M  END
> <activity>
12.0

> <InChiKey>
WVYWICLMDOOCFB-UHFFFAOYSA-N

$$$$

  Mrv2220 08292413132D          

  7  6  0  0  0  0            999 V2000
    2.0625    0.7145    0.0000 C   0  0  0  0  0  0  0  0  0  0  0  0
    1.2375    0.7145    0.0000 C   0  0  0  0  0  0  0  0  0  0  0  0
    0.8250    1.4289    0.0000 O   0  0  0  0  0  0  0  0  0  0  0  0
    0.8250    0.0000    0.0000 C   0  0  0  0  0  0  0  0  0  0  0  0
    0.0000    0.0000    0.0000 C   0  0  0  0  0  0  0  0  0  0  0  0
   -0.4125   -0.7145    0.0000 C   0  0  0  0  0  0  0  0  0  0  0  0
   -0.4125    0.7145    0.0000 C   0  0  0  0  0  0  0  0  0  0  0  0
  1  2  1  0  0  0  0
  2  3  2  0  0  0  0
  2  4  1  0  0  0  0
  4  5  2  0  0  0  0
  5  6  1  0  0  0  0
  5  7  1  0  0  0  0
M  END
> <activity>
34.8

> <InChiKey>
SHOJXDKTYKFBRD-UHFFFAOYSA-N

$$$$

  Mrv2220 08292413132D          

  9  9  0  0  0  0            999 V2000
    0.0000    2.4750    0.0000 C   0  0  0  0  0  0  0  0  0  0  0  0
    0.7145    2.0625    0.0000 C   0  0  0  0  0  0  0  0  0  0  0  0
    0.7145    1.2375    0.0000 C   0  0  0  0  0  0  0  0  0  0  0  0
    1.4289    0.8250    0.0000 C   0  0  0  0  0  0  0  0  0  0  0  0
    1.4289   -0.0000    0.0000 C   0  0  0  0  0  0  0  0  0  0  0  0
    0.7145   -0.4125    0.0000 C   0  0  0  0  0  0  0  0  0  0  0  0
    0.7145   -1.2375    0.0000 C   0  0  0  0  0  0  0  0  0  0  0  0
    0.0000    0.0000    0.0000 C   0  0  0  0  0  0  0  0  0  0  0  0
    0.0000    0.8250    0.0000 C   0  0  0  0  0  0  0  0  0  0  0  0
  1  2  2  0  0  0  0
  2  3  1  0  0  0  0
  3  4  4  0  0  0  0
  4  5  4  0  0  0  0
  5  6  4  0  0  0  0
  6  7  1  0  0  0  0
  6  8  4  0  0  0  0
  8  9  4  0  0  0  0
  3  9  4  0  0  0  0
M  END
> <activity>
13.0

> <InChiKey>
JLBJTVDPSNHSKJ-UHFFFAOYSA-N

$$$$

  Mrv2220 08292413132D          

 12 12  0  0  0  0            999 V2000
    0.0000    2.4750    0.0000 O   0  0  0  0  0  0  0  0  0  0  0  0
    0.7145    2.0625    0.0000 C   0  0  0  0  0  0  0  0  0  0  0  0
    1.4289    2.4750    0.0000 O   0  0  0  0  0  0  0  0  0  0  0  0
    0.7145    1.2375    0.0000 C   0  0  0  0  0  0  0  0  0  0  0  0
    1.4289    0.8250    0.0000 C   0  0  0  0  0  0  0  0  0  0  0  0
    1.4289   -0.0000    0.0000 C   0  0  0  0  0  0  0  0  0  0  0  0
    0.7145   -0.4125    0.0000 C   0  0  0  0  0  0  0  0  0  0  0  0
    0.7145   -1.2375    0.0000 N   0  3  0  0  0  0  0  0  0  0  0  0
    1.4289   -1.6500    0.0000 O   0  0  0  0  0  0  0  0  0  0  0  0
   -0.0000   -1.6500    0.0000 O   0  5  0  0  0  0  0  0  0  0  0  0
    0.0000    0.0000    0.0000 C   0  0  0  0  0  0  0  0  0  0  0  0
    0.0000    0.8250    0.0000 C   0  0  0  0  0  0  0  0  0  0  0  0
  1  2  2  0  0  0  0
  2  3  1  0  0  0  0
  2  4  1  0  0  0  0
  4  5  4  0  0  0  0
  5  6  4  0  0  0  0
  6  7  4  0  0  0  0
  7  8  1  0  0  0  0
  8  9  2  0  0  0  0
  8 10  1  0  0  0  0
  7 11  4  0  0  0  0
 11 12  4  0  0  0  0
  4 12  4  0  0  0  0
M  CHG  2   8   1  10  -1
M  END
> <activity>
29.1

> <InChiKey>
OTLNPYWUJOZPPA-UHFFFAOYSA-N

$$$$

  Mrv2220 08292413132D          

 15 16  0  0  0  0            999 V2000
    1.4289    0.0000    0.0000 O   0  0  0  0  0  0  0  0  0  0  0  0
    2.1434   -0.4125    0.0000 N   0  0  0  0  0  0  0  0  0  0  0  0
    2.1434   -1.2375    0.0000 C   0  0  0  0  0  0  0  0  0  0  0  0
    2.8579   -1.6500    0.0000 C   0  0  0  0  0  0  0  0  0  0  0  0
    2.8579   -2.4750    0.0000 C   0  0  0  0  0  0  0  0  0  0  0  0
    2.1434   -2.8875    0.0000 C   0  0  0  0  0  0  0  0  0  0  0  0
    2.1434   -3.7125    0.0000 N   0  0  0  0  0  0  0  0  0  0  0  0
    1.4289   -4.1250    0.0000 C   0  0  0  0  0  0  0  0  0  0  0  0
    1.4289   -4.9500    0.0000 C   0  0  0  0  0  0  0  0  0  0  0  0
    0.7145   -5.3625    0.0000 C   0  0  0  0  0  0  0  0  0  0  0  0
   -0.0000   -4.9500    0.0000 C   0  0  0  0  0  0  0  0  0  0  0  0
    0.0000   -4.1250    0.0000 C   0  0  0  0  0  0  0  0  0  0  0  0
    0.7145   -3.7125    0.0000 C   0  0  0  0  0  0  0  0  0  0  0  0
    1.4289   -2.4750    0.0000 C   0  0  0  0  0  0  0  0  0  0  0  0
    1.4289   -1.6500    0.0000 C   0  0  0  0  0  0  0  0  0  0  0  0
  1  2  2  0  0  0  0
  2  3  1  0  0  0  0
  3  4  4  0  0  0  0
  4  5  4  0  0  0  0
  5  6  4  0  0  0  0
  6  7  1  0  0  0  0
  7  8  1  0  0  0  0
  8  9  4  0  0  0  0
  9 10  4  0  0  0  0
 10 11  4  0  0  0  0
 11 12  4  0  0  0  0
 12 13  4  0  0  0  0
  8 13  4  0  0  0  0
  6 14  4  0  0  0  0
 14 15  4  0  0  0  0
  3 15  4  0  0  0  0
M  END
> <activity>
108.9

> <InChiKey>
OIJHFHYPXWSVPF-UHFFFAOYSA-N

$$$$

  Mrv2220 08292413132D          

 10 10  0  0  0  0            999 V2000
    0.7145    2.0625    0.0000 C   0  0  0  0  0  0  0  0  0  0  0  0
    0.7145    1.2375    0.0000 C   0  0  0  0  0  0  0  0  0  0  0  0
    1.4289    0.8250    0.0000 C   0  0  0  0  0  0  0  0  0  0  0  0
    1.4289   -0.0000    0.0000 C   0  0  0  0  0  0  0  0  0  0  0  0
    0.7145   -0.4125    0.0000 C   0  0  0  0  0  0  0  0  0  0  0  0
    0.7145   -1.2375    0.0000 N   0  3  0  0  0  0  0  0  0  0  0  0
    1.4289   -1.6500    0.0000 O   0  0  0  0  0  0  0  0  0  0  0  0
   -0.0000   -1.6500    0.0000 O   0  5  0  0  0  0  0  0  0  0  0  0
    0.0000    0.0000    0.0000 C   0  0  0  0  0  0  0  0  0  0  0  0
    0.0000    0.8250    0.0000 C   0  0  0  0  0  0  0  0  0  0  0  0
  1  2  1  0  0  0  0
  2  3  4  0  0  0  0
  3  4  4  0  0  0  0
  4  5  4  0  0  0  0
  5  6  1  0  0  0  0
  6  7  2  0  0  0  0
  6  8  1  0  0  0  0
  5  9  4  0  0  0  0
  9 10  4  0  0  0  0
  2 10  4  0  0  0  0
M  CHG  2   6   1   8  -1
M  END
> <activity>
18.0

> <InChiKey>
ZPTVNYMJQHSSEA-UHFFFAOYSA-N

$$$$

  Mrv2220 08292413132D          

 16 16  0  0  0  0            999 V2000
    1.4289   -4.9500    0.0000 C   0  0  0  0  0  0  0  0  0  0  0  0
    2.1434   -5.3625    0.0000 C   0  0  0  0  0  0  0  0  0  0  0  0
    2.8579   -4.9500    0.0000 C   0  0  0  0  0  0  0  0  0  0  0  0
    3.5724   -5.3625    0.0000 C   0  0  0  0  0  0  0  0  0  0  0  0
    4.2868   -4.9500    0.0000 C   0  0  0  0  0  0  0  0  0  0  0  0
    5.0013   -5.3625    0.0000 C   0  0  0  0  0  0  0  0  0  0  0  0
    5.7158   -4.9500    0.0000 C   0  0  0  0  0  0  0  0  0  0  0  0
    6.4302   -5.3625    0.0000 C   0  0  0  0  0  0  0  0  0  0  0  0
    7.1447   -4.9500    0.0000 C   0  0  0  0  0  0  0  0  0  0  0  0
    7.8592   -5.3625    0.0000 C   0  0  0  0  0  0  0  0  0  0  0  0
    8.5737   -4.9500    0.0000 C   0  0  0  0  0  0  0  0  0  0  0  0
    9.2881   -5.3625    0.0000 C   0  0  0  0  0  0  0  0  0  0  0  0
    9.2881   -6.1875    0.0000 C   0  0  0  0  0  0  0  0  0  0  0  0
   10.0026   -6.6000    0.0000 O   0  0  0  0  0  0  0  0  0  0  0  0
    8.5737   -6.6000    0.0000 C   0  0  0  0  0  0  0  0  0  0  0  0
    7.8592   -6.1875    0.0000 C   0  0  0  0  0  0  0  0  0  0  0  0
  1  2  1  0  0  0  0
  2  3  1  0  0  0  0
  3  4  1  0  0  0  0
  4  5  1  0  0  0  0
  5  6  1  0  0  0  0
  6  7  1  0  0  0  0
  7  8  1  0  0  0  0
  8  9  1  0  0  0  0
  9 10  1  0  0  0  0
 10 11  4  0  0  0  0
 11 12  4  0  0  0  0
 12 13  4  0  0  0  0
 13 14  1  0  0  0  0
 13 15  4  0  0  0  0
 15 16  4  0  0  0  0
 10 16  4  0  0  0  0
M  END
> <activity>
89.2

> <InChiKey>
IGFHQQFPSIBGKE-UHFFFAOYSA-N

$$$$

  Mrv2220 08292413132D          

 16 16  0  0  0  0            999 V2000
    2.1434   -5.3625    0.0000 C   0  0  0  0  0  0  0  0  0  0  0  0
    2.8579   -4.9500    0.0000 C   0  0  0  0  0  0  0  0  0  0  0  0
    2.8579   -4.1250    0.0000 C   0  0  0  0  0  0  0  0  0  0  0  0
    3.5724   -5.3625    0.0000 C   0  0  0  0  0  0  0  0  0  0  0  0
    4.2868   -4.9500    0.0000 C   0  0  0  0  0  0  0  0  0  0  0  0
    5.0013   -5.3625    0.0000 C   0  0  0  0  0  0  0  0  0  0  0  0
    5.7158   -4.9500    0.0000 C   0  0  0  0  0  0  0  0  0  0  0  0
    6.4302   -5.3625    0.0000 C   0  0  0  0  0  0  0  0  0  0  0  0
    7.1447   -4.9500    0.0000 C   0  0  0  0  0  0  0  0  0  0  0  0
    7.8592   -5.3625    0.0000 C   0  0  0  0  0  0  0  0  0  0  0  0
    8.5737   -4.9500    0.0000 C   0  0  0  0  0  0  0  0  0  0  0  0
    9.2881   -5.3625    0.0000 C   0  0  0  0  0  0  0  0  0  0  0  0
    9.2881   -6.1875    0.0000 C   0  0  0  0  0  0  0  0  0  0  0  0
   10.0026   -6.6000    0.0000 O   0  0  0  0  0  0  0  0  0  0  0  0
    8.5737   -6.6000    0.0000 C   0  0  0  0  0  0  0  0  0  0  0  0
    7.8592   -6.1875    0.0000 C   0  0  0  0  0  0  0  0  0  0  0  0
  1  2  1  0  0  0  0
  2  3  1  0  0  0  0
  2  4  1  0  0  0  0
  4  5  1  0  0  0  0
  5  6  1  0  0  0  0
  6  7  1  0  0  0  0
  7  8  1  0  0  0  0
  8  9  1  0  0  0  0
  9 10  1  0  0  0  0
 10 11  4  0  0  0  0
 11 12  4  0  0  0  0
 12 13  4  0  0  0  0
 13 14  1  0  0  0  0
 13 15  4  0  0  0  0
 15 16  4  0  0  0  0
 10 16  4  0  0  0  0
M  END
> <activity>
104.2

> <InChiKey>
JSFITYFUKSFPBZ-UHFFFAOYSA-N

$$$$

  Mrv2220 08292413132D          

 15 15  0  0  0  0            999 V2000
    2.1434   -5.3625    0.0000 C   0  0  0  0  0  0  0  0  0  0  0  0
    2.8579   -4.9500    0.0000 C   0  0  0  0  0  0  0  0  0  0  0  0
    3.5724   -5.3625    0.0000 C   0  0  0  0  0  0  0  0  0  0  0  0
    4.2868   -4.9500    0.0000 C   0  0  0  0  0  0  0  0  0  0  0  0
    5.0013   -5.3625    0.0000 C   0  0  0  0  0  0  0  0  0  0  0  0
    5.7158   -4.9500    0.0000 C   0  0  0  0  0  0  0  0  0  0  0  0
    6.4302   -5.3625    0.0000 C   0  0  0  0  0  0  0  0  0  0  0  0
    7.1447   -4.9500    0.0000 C   0  0  0  0  0  0  0  0  0  0  0  0
    7.8592   -5.3625    0.0000 C   0  0  0  0  0  0  0  0  0  0  0  0
    8.5737   -4.9500    0.0000 C   0  0  0  0  0  0  0  0  0  0  0  0
    9.2881   -5.3625    0.0000 C   0  0  0  0  0  0  0  0  0  0  0  0
    9.2881   -6.1875    0.0000 C   0  0  0  0  0  0  0  0  0  0  0  0
   10.0026   -6.6000    0.0000 O   0  0  0  0  0  0  0  0  0  0  0  0
    8.5737   -6.6000    0.0000 C   0  0  0  0  0  0  0  0  0  0  0  0
    7.8592   -6.1875    0.0000 C   0  0  0  0  0  0  0  0  0  0  0  0
  1  2  1  0  0  0  0
  2  3  1  0  0  0  0
  3  4  1  0  0  0  0
  4  5  1  0  0  0  0
  5  6  1  0  0  0  0
  6  7  1  0  0  0  0
  7  8  1  0  0  0  0
  8  9  1  0  0  0  0
  9 10  4  0  0  0  0
 10 11  4  0  0  0  0
 11 12  4  0  0  0  0
 12 13  1  0  0  0  0
 12 14  4  0  0  0  0
 14 15  4  0  0  0  0
  9 15  4  0  0  0  0
M  END
> <activity>
102.5

> <InChiKey>
NTDQQZYCCIDJRK-UHFFFAOYSA-N

$$$$

  Mrv2220 08292413132D          

 12 12  0  0  0  0            999 V2000
    0.0000   -2.4750    0.0000 C   0  0  0  0  0  0  0  0  0  0  0  0
    0.7145   -2.8875    0.0000 C   0  0  0  0  0  0  0  0  0  0  0  0
    1.4289   -2.4750    0.0000 C   0  0  0  0  0  0  0  0  0  0  0  0
    2.1434   -2.8875    0.0000 C   0  0  0  0  0  0  0  0  0  0  0  0
    2.8579   -2.4750    0.0000 C   0  0  0  0  0  0  0  0  0  0  0  0
    3.5724   -2.8875    0.0000 C   0  0  0  0  0  0  0  0  0  0  0  0
    4.2868   -2.4750    0.0000 C   0  0  0  0  0  0  0  0  0  0  0  0
    5.0013   -2.8875    0.0000 C   0  0  0  0  0  0  0  0  0  0  0  0
    5.0013   -3.7125    0.0000 C   0  0  0  0  0  0  0  0  0  0  0  0
    5.7158   -4.1250    0.0000 N   0  0  0  0  0  0  0  0  0  0  0  0
    4.2868   -4.1250    0.0000 C   0  0  0  0  0  0  0  0  0  0  0  0
    3.5724   -3.7125    0.0000 C   0  0  0  0  0  0  0  0  0  0  0  0
  1  2  1  0  0  0  0
  2  3  1  0  0  0  0
  3  4  1  0  0  0  0
  4  5  1  0  0  0  0
  5  6  1  0  0  0  0
  6  7  4  0  0  0  0
  7  8  4  0  0  0  0
  8  9  4  0  0  0  0
  9 10  1  0  0  0  0
  9 11  4  0  0  0  0
 11 12  4  0  0  0  0
  6 12  4  0  0  0  0
M  END
> <activity>
89.4

> <InChiKey>
DGFTWBUZRHAHTH-UHFFFAOYSA-N

$$$$

  Mrv2220 08292413132D          

 13 14  0  0  0  0            999 V2000
    0.7145   -0.4125    0.0000 O   0  0  0  0  0  0  0  0  0  0  0  0
    0.7145   -1.2375    0.0000 C   0  0  0  0  0  0  0  0  0  0  0  0
    1.4289   -1.6500    0.0000 C   0  0  0  0  0  0  0  0  0  0  0  0
    1.4289   -2.4750    0.0000 C   0  0  0  0  0  0  0  0  0  0  0  0
    0.7145   -2.8875    0.0000 C   0  0  0  0  0  0  0  0  0  0  0  0
    0.7145   -3.7125    0.0000 C   0  0  0  0  0  0  0  0  0  0  0  0
    1.4289   -4.1250    0.0000 C   0  0  0  0  0  0  0  0  0  0  0  0
    1.4289   -4.9500    0.0000 C   0  0  0  0  0  0  0  0  0  0  0  0
    0.7145   -5.3625    0.0000 C   0  0  0  0  0  0  0  0  0  0  0  0
    0.0000   -4.9500    0.0000 C   0  0  0  0  0  0  0  0  0  0  0  0
    0.0000   -4.1250    0.0000 C   0  0  0  0  0  0  0  0  0  0  0  0
    0.0000   -2.4750    0.0000 C   0  0  0  0  0  0  0  0  0  0  0  0
    0.0000   -1.6500    0.0000 C   0  0  0  0  0  0  0  0  0  0  0  0
  1  2  1  0  0  0  0
  2  3  4  0  0  0  0
  3  4  4  0  0  0  0
  4  5  4  0  0  0  0
  5  6  1  0  0  0  0
  6  7  4  0  0  0  0
  7  8  4  0  0  0  0
  8  9  4  0  0  0  0
  9 10  4  0  0  0  0
 10 11  4  0  0  0  0
  6 11  4  0  0  0  0
  5 12  4  0  0  0  0
 12 13  4  0  0  0  0
  2 13  4  0  0  0  0
M  END
> <activity>
100.9

> <InChiKey>
YXVFYQXJAXKLAK-UHFFFAOYSA-N

$$$$

  Mrv2220 08292413132D          

 10 10  0  0  0  0            999 V2000
    0.0000    3.3000    0.0000 C   0  0  0  0  0  0  0  0  0  0  0  0
    0.0000    2.4750    0.0000 C   0  0  0  0  0  0  0  0  0  0  0  0
    0.7145    2.0625    0.0000 C   0  0  0  0  0  0  0  0  0  0  0  0
    0.7145    1.2375    0.0000 C   0  0  0  0  0  0  0  0  0  0  0  0
    1.4289    0.8250    0.0000 C   0  0  0  0  0  0  0  0  0  0  0  0
    1.4289   -0.0000    0.0000 C   0  0  0  0  0  0  0  0  0  0  0  0
    0.7145   -0.4125    0.0000 C   0  0  0  0  0  0  0  0  0  0  0  0
    0.7145   -1.2375    0.0000 O   0  0  0  0  0  0  0  0  0  0  0  0
    0.0000    0.0000    0.0000 C   0  0  0  0  0  0  0  0  0  0  0  0
    0.0000    0.8250    0.0000 C   0  0  0  0  0  0  0  0  0  0  0  0
  1  2  1  0  0  0  0
  2  3  1  0  0  0  0
  3  4  1  0  0  0  0
  4  5  1  0  0  0  0
  5  6  1  0  0  0  0
  6  7  1  0  0  0  0
  7  8  2  0  0  0  0
  7  9  1  0  0  0  0
  9 10  1  0  0  0  0
  4 10  1  0  0  0  0
M  END
> <activity>
34.9

> <InChiKey>
NQEDLIZOPMNZMC-UHFFFAOYSA-N

$$$$

  Mrv2220 08292413132D          

 11 11  0  0  0  0            999 V2000
    0.7145    2.8875    0.0000 C   0  0  0  0  0  0  0  0  0  0  0  0
    0.7145    2.0625    0.0000 C   0  0  0  0  0  0  0  0  0  0  0  0
   -0.1105    2.0625    0.0000 C   0  0  0  0  0  0  0  0  0  0  0  0
    1.5395    2.0625    0.0000 C   0  0  0  0  0  0  0  0  0  0  0  0
    0.7145    1.2375    0.0000 C   0  0  0  0  0  0  0  0  0  0  0  0
    1.4289    0.8250    0.0000 C   0  0  0  0  0  0  0  0  0  0  0  0
    1.4289   -0.0000    0.0000 C   0  0  0  0  0  0  0  0  0  0  0  0
    0.7145   -0.4125    0.0000 C   0  0  0  0  0  0  0  0  0  0  0  0
    0.7145   -1.2375    0.0000 N   0  0  0  0  0  0  0  0  0  0  0  0
    0.0000    0.0000    0.0000 C   0  0  0  0  0  0  0  0  0  0  0  0
    0.0000    0.8250    0.0000 C   0  0  0  0  0  0  0  0  0  0  0  0
  1  2  1  0  0  0  0
  2  3  1  0  0  0  0
  2  4  1  0  0  0  0
  2  5  1  0  0  0  0
  5  6  4  0  0  0  0
  6  7  4  0  0  0  0
  7  8  4  0  0  0  0
  8  9  1  0  0  0  0
  8 10  4  0  0  0  0
 10 11  4  0  0  0  0
  5 11  4  0  0  0  0
M  END
> <activity>
26.7

> <InChiKey>
WRDWWAVNELMWAM-UHFFFAOYSA-N

$$$$

  Mrv2220 08292413132D          

 11 11  0  0  0  0            999 V2000
    0.7145    2.8875    0.0000 C   0  0  0  0  0  0  0  0  0  0  0  0
    0.7145    2.0625    0.0000 C   0  0  0  0  0  0  0  0  0  0  0  0
   -0.1105    2.0625    0.0000 C   0  0  0  0  0  0  0  0  0  0  0  0
    1.5395    2.0625    0.0000 C   0  0  0  0  0  0  0  0  0  0  0  0
    0.7145    1.2375    0.0000 C   0  0  0  0  0  0  0  0  0  0  0  0
    1.4289    0.8250    0.0000 C   0  0  0  0  0  0  0  0  0  0  0  0
    1.4289   -0.0000    0.0000 C   0  0  0  0  0  0  0  0  0  0  0  0
    0.7145   -0.4125    0.0000 C   0  0  0  0  0  0  0  0  0  0  0  0
    0.7145   -1.2375    0.0000 S   0  0  0  0  0  0  0  0  0  0  0  0
    0.0000    0.0000    0.0000 C   0  0  0  0  0  0  0  0  0  0  0  0
    0.0000    0.8250    0.0000 C   0  0  0  0  0  0  0  0  0  0  0  0
  1  2  1  0  0  0  0
  2  3  1  0  0  0  0
  2  4  1  0  0  0  0
  2  5  1  0  0  0  0
  5  6  4  0  0  0  0
  6  7  4  0  0  0  0
  7  8  4  0  0  0  0
  8  9  1  0  0  0  0
  8 10  4  0  0  0  0
 10 11  4  0  0  0  0
  5 11  4  0  0  0  0
M  END
> <activity>
37.9

> <InChiKey>
GNXBFFHXJDZGEK-UHFFFAOYSA-N

$$$$

  Mrv2220 08292413132D          

 11 11  0  0  0  0            999 V2000
    0.7145    2.8875    0.0000 C   0  0  0  0  0  0  0  0  0  0  0  0
    0.7145    2.0625    0.0000 C   0  0  0  0  0  0  0  0  0  0  0  0
   -0.1105    2.0625    0.0000 C   0  0  0  0  0  0  0  0  0  0  0  0
    1.5395    2.0625    0.0000 C   0  0  0  0  0  0  0  0  0  0  0  0
    0.7145    1.2375    0.0000 C   0  0  0  0  0  0  0  0  0  0  0  0
    1.4289    0.8250    0.0000 C   0  0  0  0  0  0  0  0  0  0  0  0
    1.4289   -0.0000    0.0000 C   0  0  0  0  0  0  0  0  0  0  0  0
    0.7145   -0.4125    0.0000 C   0  0  0  0  0  0  0  0  0  0  0  0
    0.7145   -1.2375    0.0000 O   0  0  0  0  0  0  0  0  0  0  0  0
    0.0000    0.0000    0.0000 C   0  0  0  0  0  0  0  0  0  0  0  0
    0.0000    0.8250    0.0000 C   0  0  0  0  0  0  0  0  0  0  0  0
  1  2  1  0  0  0  0
  2  3  1  0  0  0  0
  2  4  1  0  0  0  0
  2  5  1  0  0  0  0
  5  6  1  0  0  0  0
  6  7  1  0  0  0  0
  7  8  1  0  0  0  0
  8  9  2  0  0  0  0
  8 10  1  0  0  0  0
 10 11  1  0  0  0  0
  5 11  1  0  0  0  0
M  END
> <activity>
7.2

> <InChiKey>
YKFKEYKJGVSEIX-UHFFFAOYSA-N

$$$$

  Mrv2220 08292413132D          

 20 21  0  0  0  0            999 V2000
    1.4289   -0.8250    0.0000 C   0  0  0  0  0  0  0  0  0  0  0  0
    1.4289   -1.6500    0.0000 C   0  0  0  0  0  0  0  0  0  0  0  0
    0.6039   -1.6500    0.0000 C   0  0  0  0  0  0  0  0  0  0  0  0
    2.2539   -1.6500    0.0000 C   0  0  0  0  0  0  0  0  0  0  0  0
    1.4289   -2.4750    0.0000 C   0  0  0  0  0  0  0  0  0  0  0  0
    2.1434   -2.8875    0.0000 C   0  0  0  0  0  0  0  0  0  0  0  0
    2.1434   -3.7125    0.0000 C   0  0  0  0  0  0  0  0  0  0  0  0
    1.4289   -4.1250    0.0000 C   0  0  0  0  0  0  0  0  0  0  0  0
    1.4289   -4.9500    0.0000 O   0  0  0  0  0  0  0  0  0  0  0  0
    2.1434   -5.3625    0.0000 C   0  0  0  0  0  0  0  0  0  0  0  0
    2.8579   -4.9500    0.0000 O   0  0  0  0  0  0  0  0  0  0  0  0
    2.1434   -6.1875    0.0000 C   0  0  0  0  0  0  0  0  0  0  0  0
    2.8579   -6.6000    0.0000 C   0  0  0  0  0  0  0  0  0  0  0  0
    2.8579   -7.4250    0.0000 C   0  0  0  0  0  0  0  0  0  0  0  0
    2.1434   -7.8375    0.0000 C   0  0  0  0  0  0  0  0  0  0  0  0
    1.4289   -7.4250    0.0000 C   0  0  0  0  0  0  0  0  0  0  0  0
    1.4289   -6.6000    0.0000 C   0  0  0  0  0  0  0  0  0  0  0  0
    0.7145   -6.1875    0.0000 O   0  0  0  0  0  0  0  0  0  0  0  0
    0.7145   -3.7125    0.0000 C   0  0  0  0  0  0  0  0  0  0  0  0
    0.7145   -2.8875    0.0000 C   0  0  0  0  0  0  0  0  0  0  0  0
  1  2  1  0  0  0  0
  2  3  1  0  0  0  0
  2  4  1  0  0  0  0
  2  5  1  0  0  0  0
  5  6  4  0  0  0  0
  6  7  4  0  0  0  0
  7  8  4  0  0  0  0
  8  9  1  0  0  0  0
  9 10  1  0  0  0  0
 10 11  2  0  0  0  0
 10 12  1  0  0  0  0
 12 13  4  0  0  0  0
 13 14  4  0  0  0  0
 14 15  4  0  0  0  0
 15 16  4  0  0  0  0
 16 17  4  0  0  0  0
 12 17  4  0  0  0  0
 17 18  1  0  0  0  0
  8 19  4  0  0  0  0
 19 20  4  0  0  0  0
  5 20  4  0  0  0  0
M  END
> <activity>
45.7

> <InChiKey>
DBOSBRHMHBENLP-UHFFFAOYSA-N

$$$$

  Mrv2220 08292413132D          

 11 11  0  0  0  0            999 V2000
    0.7145    2.0625    0.0000 C   0  0  0  0  0  0  0  0  0  0  0  0
    0.7145    1.2375    0.0000 C   0  0  0  0  0  0  0  0  0  0  0  0
    1.4289    0.8250    0.0000 C   0  0  0  0  0  0  0  0  0  0  0  0
    1.4289   -0.0000    0.0000 C   0  0  0  0  0  0  0  0  0  0  0  0
    0.7145   -0.4125    0.0000 C   0  0  0  0  0  0  0  0  0  0  0  0
    0.7145   -1.2375    0.0000 C   0  0  0  0  0  0  0  0  0  0  0  0
    0.7145   -2.0625    0.0000 C   0  0  0  0  0  0  0  0  0  0  0  0
   -0.1105   -1.2375    0.0000 C   0  0  0  0  0  0  0  0  0  0  0  0
    1.5395   -1.2375    0.0000 C   0  0  0  0  0  0  0  0  0  0  0  0
    0.0000    0.0000    0.0000 C   0  0  0  0  0  0  0  0  0  0  0  0
    0.0000    0.8250    0.0000 C   0  0  0  0  0  0  0  0  0  0  0  0
  1  2  1  0  0  0  0
  2  3  4  0  0  0  0
  3  4  4  0  0  0  0
  4  5  4  0  0  0  0
  5  6  1  0  0  0  0
  6  7  1  0  0  0  0
  6  8  1  0  0  0  0
  6  9  1  0  0  0  0
  5 10  4  0  0  0  0
 10 11  4  0  0  0  0
  2 11  4  0  0  0  0
M  END
> <activity>
8.8

> <InChiKey>
QCWXDVFBZVHKLV-UHFFFAOYSA-N

$$$$

  Mrv2220 08292413132D          

 11 11  0  0  0  0            999 V2000
    0.7145    2.0625    0.0000 C   0  0  0  0  0  0  0  0  0  0  0  0
    0.7145    1.2375    0.0000 C   0  0  0  0  0  0  0  0  0  0  0  0
    1.4289    0.8250    0.0000 C   0  0  0  0  0  0  0  0  0  0  0  0
    1.4289   -0.0000    0.0000 C   0  0  0  0  0  0  0  0  0  0  0  0
    0.7145   -0.4125    0.0000 C   0  0  0  0  0  0  0  0  0  0  0  0
    0.7145   -1.2375    0.0000 S   0  0  0  0  0  0  0  0  0  0  0  0
    0.7145   -2.0625    0.0000 N   0  0  0  0  0  0  0  0  0  0  0  0
   -0.1105   -1.2375    0.0000 O   0  0  0  0  0  0  0  0  0  0  0  0
    1.5395   -1.2375    0.0000 O   0  0  0  0  0  0  0  0  0  0  0  0
    0.0000    0.0000    0.0000 C   0  0  0  0  0  0  0  0  0  0  0  0
    0.0000    0.8250    0.0000 C   0  0  0  0  0  0  0  0  0  0  0  0
  1  2  1  0  0  0  0
  2  3  4  0  0  0  0
  3  4  4  0  0  0  0
  4  5  4  0  0  0  0
  5  6  1  0  0  0  0
  6  7  1  0  0  0  0
  6  8  2  0  0  0  0
  6  9  2  0  0  0  0
  5 10  4  0  0  0  0
 10 11  4  0  0  0  0
  2 11  4  0  0  0  0
M  END
> <activity>
12.8

> <InChiKey>
LMYRWZFENFIFIT-UHFFFAOYSA-N

$$$$

  Mrv2220 08292413132D          

 10 12  0  0  0  0            999 V2000
    1.9053    0.8250    0.0000 C   0  0  0  0  0  0  0  0  0  0  0  0
    1.1908    0.4125    0.0000 C   0  0  0  0  0  0  0  0  0  0  0  0
    0.4763    0.8250    0.0000 C   0  0  0  0  0  0  0  0  0  0  0  0
   -0.2382    1.2375    0.0000 O   0  0  0  0  0  0  0  0  0  0  0  0
    0.4763    1.6500    0.0000 C   0  0  0  0  0  0  0  0  0  0  0  0
    1.1908    2.0625    0.0000 C   0  0  0  0  0  0  0  0  0  0  0  0
    1.9053    1.6500    0.0000 C   0  0  0  0  0  0  0  0  0  0  0  0
    2.6197    2.0625    0.0000 C   0  0  0  0  0  0  0  0  0  0  0  0
    3.0322    2.7770    0.0000 C   0  0  0  0  0  0  0  0  0  0  0  0
    3.4447    2.0625    0.0000 O   0  0  0  0  0  0  0  0  0  0  0  0
  1  2  1  0  0  0  0
  2  3  1  0  0  0  0
  3  4  1  0  0  0  0
  4  5  1  0  0  0  0
  3  5  1  0  0  0  0
  5  6  1  0  0  0  0
  6  7  1  0  0  0  0
  1  7  1  0  0  0  0
  7  8  1  0  0  0  0
  8  9  1  0  0  0  0
  9 10  1  0  0  0  0
  8 10  1  0  0  0  0
M  END
> <activity>
8.2

> <InChiKey>
OECTYKWYRCHAKR-UHFFFAOYSA-N

$$$$

  Mrv2220 08292413132D          

 21 22  0  0  0  0            999 V2000
    1.5395   -1.2375    0.0000 C   0  0  0  0  0  0  0  0  0  0  0  0
    0.7145   -1.2375    0.0000 C   0  0  0  0  0  0  0  0  0  0  0  0
   -0.1105   -1.2375    0.0000 C   0  0  0  0  0  0  0  0  0  0  0  0
   -0.5230   -0.5230    0.0000 C   0  0  0  0  0  0  0  0  0  0  0  0
   -1.3480   -0.5230    0.0000 C   0  0  0  0  0  0  0  0  0  0  0  0
   -1.7605    0.1914    0.0000 O   0  0  0  0  0  0  0  0  0  0  0  0
   -1.7605   -1.2375    0.0000 O   0  0  0  0  0  0  0  0  0  0  0  0
    0.7145   -2.0625    0.0000 C   0  0  0  0  0  0  0  0  0  0  0  0
    1.4289   -2.4750    0.0000 C   0  0  0  0  0  0  0  0  0  0  0  0
    1.4289   -3.3000    0.0000 C   0  0  0  0  0  0  0  0  0  0  0  0
    0.7145   -3.7125    0.0000 C   0  0  0  0  0  0  0  0  0  0  0  0
    0.7145   -4.5375    0.0000 O   0  0  0  0  0  0  0  0  0  0  0  0
    0.0000   -3.3000    0.0000 C   0  0  0  0  0  0  0  0  0  0  0  0
    0.0000   -2.4750    0.0000 C   0  0  0  0  0  0  0  0  0  0  0  0
    0.7145   -0.4125    0.0000 C   0  0  0  0  0  0  0  0  0  0  0  0
    0.0000    0.0000    0.0000 C   0  0  0  0  0  0  0  0  0  0  0  0
    0.0000    0.8250    0.0000 C   0  0  0  0  0  0  0  0  0  0  0  0
    0.7145    1.2375    0.0000 C   0  0  0  0  0  0  0  0  0  0  0  0
    0.7145    2.0625    0.0000 O   0  0  0  0  0  0  0  0  0  0  0  0
    1.4289    0.8250    0.0000 C   0  0  0  0  0  0  0  0  0  0  0  0
    1.4289   -0.0000    0.0000 C   0  0  0  0  0  0  0  0  0  0  0  0
  1  2  1  0  0  0  0
  2  3  1  0  0  0  0
  3  4  1  0  0  0  0
  4  5  1  0  0  0  0
  5  6  2  0  0  0  0
  5  7  1  0  0  0  0
  2  8  1  0  0  0  0
  8  9  4  0  0  0  0
  9 10  4  0  0  0  0
 10 11  4  0  0  0  0
 11 12  1  0  0  0  0
 11 13  4  0  0  0  0
 13 14  4  0  0  0  0
  8 14  4  0  0  0  0
  2 15  1  0  0  0  0
 15 16  4  0  0  0  0
 16 17  4  0  0  0  0
 17 18  4  0  0  0  0
 18 19  1  0  0  0  0
 18 20  4  0  0  0  0
 20 21  4  0  0  0  0
 15 21  4  0  0  0  0
M  END
> <activity>
43.3

> <InChiKey>
VKOUCJUTMGHNOR-UHFFFAOYSA-N

$$$$

  Mrv2220 08292413132D          

 20 21  0  0  0  0            999 V2000
    0.7145    0.4125    0.0000 C   0  0  0  0  0  0  0  0  0  0  0  0
    0.7145   -0.4125    0.0000 C   0  0  0  0  0  0  0  0  0  0  0  0
   -0.1105   -0.4125    0.0000 C   0  0  0  0  0  0  0  0  0  0  0  0
    1.5395   -0.4125    0.0000 C   0  0  0  0  0  0  0  0  0  0  0  0
    0.7145   -1.2375    0.0000 C   0  0  0  0  0  0  0  0  0  0  0  0
    1.4289   -1.6500    0.0000 C   0  0  0  0  0  0  0  0  0  0  0  0
    1.4289   -2.4750    0.0000 C   0  0  0  0  0  0  0  0  0  0  0  0
    0.7145   -2.8875    0.0000 C   0  0  0  0  0  0  0  0  0  0  0  0
    0.7145   -3.7125    0.0000 C   0  0  0  0  0  0  0  0  0  0  0  0
    1.4289   -4.1250    0.0000 C   0  0  0  0  0  0  0  0  0  0  0  0
    1.4289   -4.9500    0.0000 C   0  0  0  0  0  0  0  0  0  0  0  0
    0.7145   -5.3625    0.0000 C   0  0  0  0  0  0  0  0  0  0  0  0
    0.7145   -6.1875    0.0000 C   0  0  0  0  0  0  0  0  0  0  0  0
    0.7145   -7.0125    0.0000 C   0  0  0  0  0  0  0  0  0  0  0  0
   -0.1105   -6.1875    0.0000 C   0  0  0  0  0  0  0  0  0  0  0  0
    1.5395   -6.1875    0.0000 C   0  0  0  0  0  0  0  0  0  0  0  0
    0.0000   -4.9500    0.0000 C   0  0  0  0  0  0  0  0  0  0  0  0
    0.0000   -4.1250    0.0000 C   0  0  0  0  0  0  0  0  0  0  0  0
    0.0000   -2.4750    0.0000 C   0  0  0  0  0  0  0  0  0  0  0  0
    0.0000   -1.6500    0.0000 C   0  0  0  0  0  0  0  0  0  0  0  0
  1  2  1  0  0  0  0
  2  3  1  0  0  0  0
  2  4  1  0  0  0  0
  2  5  1  0  0  0  0
  5  6  4  0  0  0  0
  6  7  4  0  0  0  0
  7  8  4  0  0  0  0
  8  9  1  0  0  0  0
  9 10  4  0  0  0  0
 10 11  4  0  0  0  0
 11 12  4  0  0  0  0
 12 13  1  0  0  0  0
 13 14  1  0  0  0  0
 13 15  1  0  0  0  0
 13 16  1  0  0  0  0
 12 17  4  0  0  0  0
 17 18  4  0  0  0  0
  9 18  4  0  0  0  0
  8 19  4  0  0  0  0
 19 20  4  0  0  0  0
  5 20  4  0  0  0  0
M  END
> <activity>
6.1

> <InChiKey>
CDKCEZNPAYWORX-UHFFFAOYSA-N

$$$$

  Mrv2220 08292413132D          

 15 16  0  0  0  0            999 V2000
    2.1434   -0.4125    0.0000 N   0  0  0  0  0  0  0  0  0  0  0  0
    2.1434   -1.2375    0.0000 C   0  0  0  0  0  0  0  0  0  0  0  0
    2.8579   -1.6500    0.0000 C   0  0  0  0  0  0  0  0  0  0  0  0
    2.8579   -2.4750    0.0000 C   0  0  0  0  0  0  0  0  0  0  0  0
    2.1434   -2.8875    0.0000 C   0  0  0  0  0  0  0  0  0  0  0  0
    2.1434   -3.7125    0.0000 C   0  0  0  0  0  0  0  0  0  0  0  0
    1.4289   -4.1250    0.0000 C   0  0  0  0  0  0  0  0  0  0  0  0
    1.4289   -4.9500    0.0000 C   0  0  0  0  0  0  0  0  0  0  0  0
    0.7145   -5.3625    0.0000 C   0  0  0  0  0  0  0  0  0  0  0  0
   -0.0000   -4.9500    0.0000 C   0  0  0  0  0  0  0  0  0  0  0  0
   -0.7145   -5.3625    0.0000 N   0  0  0  0  0  0  0  0  0  0  0  0
    0.0000   -4.1250    0.0000 C   0  0  0  0  0  0  0  0  0  0  0  0
    0.7145   -3.7125    0.0000 C   0  0  0  0  0  0  0  0  0  0  0  0
    1.4289   -2.4750    0.0000 C   0  0  0  0  0  0  0  0  0  0  0  0
    1.4289   -1.6500    0.0000 C   0  0  0  0  0  0  0  0  0  0  0  0
  1  2  1  0  0  0  0
  2  3  4  0  0  0  0
  3  4  4  0  0  0  0
  4  5  4  0  0  0  0
  5  6  1  0  0  0  0
  6  7  1  0  0  0  0
  7  8  4  0  0  0  0
  8  9  4  0  0  0  0
  9 10  4  0  0  0  0
 10 11  1  0  0  0  0
 10 12  4  0  0  0  0
 12 13  4  0  0  0  0
  7 13  4  0  0  0  0
  5 14  4  0  0  0  0
 14 15  4  0  0  0  0
  2 15  4  0  0  0  0
M  END
> <activity>
75.3

> <InChiKey>
YBRVSVVVWCFQMG-UHFFFAOYSA-N

$$$$

  Mrv2220 08292413132D          

 14 15  0  0  0  0            999 V2000
   -0.7145   -3.7125    0.0000 C   0  0  0  0  0  0  0  0  0  0  0  0
   -0.7145   -2.8875    0.0000 C   0  0  0  0  0  0  0  0  0  0  0  0
    0.0000   -2.4750    0.0000 N   0  0  0  0  0  0  0  0  0  0  0  0
    0.0000   -1.6500    0.0000 S   0  0  0  0  0  0  0  0  0  0  0  0
    0.7145   -1.2375    0.0000 S   0  0  0  0  0  0  0  0  0  0  0  0
    0.7145   -0.4125    0.0000 N   0  0  0  0  0  0  0  0  0  0  0  0
    0.0000    0.0000    0.0000 C   0  0  0  0  0  0  0  0  0  0  0  0
    0.0000    0.8250    0.0000 C   0  0  0  0  0  0  0  0  0  0  0  0
    0.7145    1.2375    0.0000 O   0  0  0  0  0  0  0  0  0  0  0  0
    1.4289    0.8250    0.0000 C   0  0  0  0  0  0  0  0  0  0  0  0
    1.4289   -0.0000    0.0000 C   0  0  0  0  0  0  0  0  0  0  0  0
    0.7145   -2.8875    0.0000 C   0  0  0  0  0  0  0  0  0  0  0  0
    0.7145   -3.7125    0.0000 C   0  0  0  0  0  0  0  0  0  0  0  0
    0.0000   -4.1250    0.0000 O   0  0  0  0  0  0  0  0  0  0  0  0
  1  2  1  0  0  0  0
  2  3  1  0  0  0  0
  3  4  1  0  0  0  0
  4  5  1  0  0  0  0
  5  6  1  0  0  0  0
  6  7  1  0  0  0  0
  7  8  1  0  0  0  0
  8  9  1  0  0  0  0
  9 10  1  0  0  0  0
 10 11  1  0  0  0  0
  6 11  1  0  0  0  0
  3 12  1  0  0  0  0
 12 13  1  0  0  0  0
 13 14  1  0  0  0  0
  1 14  1  0  0  0  0
M  END
> <activity>
80.8

> <InChiKey>
HLBZWYXLQJQBKU-UHFFFAOYSA-N

$$$$

  Mrv2220 08292413132D          

 19 20  0  0  0  0            999 V2000
    1.4289    0.0000    0.0000 C   0  0  0  0  0  0  0  0  0  0  0  0
    2.1434   -0.4125    0.0000 N   0  0  0  0  0  0  0  0  0  0  0  0
    2.8579    0.0000    0.0000 C   0  0  0  0  0  0  0  0  0  0  0  0
    2.1434   -1.2375    0.0000 C   0  0  0  0  0  0  0  0  0  0  0  0
    2.8579   -1.6500    0.0000 C   0  0  0  0  0  0  0  0  0  0  0  0
    2.8579   -2.4750    0.0000 C   0  0  0  0  0  0  0  0  0  0  0  0
    2.1434   -2.8875    0.0000 C   0  0  0  0  0  0  0  0  0  0  0  0
    2.1434   -3.7125    0.0000 C   0  0  0  0  0  0  0  0  0  0  0  0
    1.4289   -4.1250    0.0000 C   0  0  0  0  0  0  0  0  0  0  0  0
    1.4289   -4.9500    0.0000 C   0  0  0  0  0  0  0  0  0  0  0  0
    0.7145   -5.3625    0.0000 C   0  0  0  0  0  0  0  0  0  0  0  0
   -0.0000   -4.9500    0.0000 C   0  0  0  0  0  0  0  0  0  0  0  0
   -0.7145   -5.3625    0.0000 N   0  0  0  0  0  0  0  0  0  0  0  0
   -0.7145   -6.1875    0.0000 C   0  0  0  0  0  0  0  0  0  0  0  0
   -1.4289   -4.9500    0.0000 C   0  0  0  0  0  0  0  0  0  0  0  0
    0.0000   -4.1250    0.0000 C   0  0  0  0  0  0  0  0  0  0  0  0
    0.7145   -3.7125    0.0000 C   0  0  0  0  0  0  0  0  0  0  0  0
    1.4289   -2.4750    0.0000 C   0  0  0  0  0  0  0  0  0  0  0  0
    1.4289   -1.6500    0.0000 C   0  0  0  0  0  0  0  0  0  0  0  0
  1  2  1  0  0  0  0
  2  3  1  0  0  0  0
  2  4  1  0  0  0  0
  4  5  4  0  0  0  0
  5  6  4  0  0  0  0
  6  7  4  0  0  0  0
  7  8  1  0  0  0  0
  8  9  1  0  0  0  0
  9 10  4  0  0  0  0
 10 11  4  0  0  0  0
 11 12  4  0  0  0  0
 12 13  1  0  0  0  0
 13 14  1  0  0  0  0
 13 15  1  0  0  0  0
 12 16  4  0  0  0  0
 16 17  4  0  0  0  0
  9 17  4  0  0  0  0
  7 18  4  0  0  0  0
 18 19  4  0  0  0  0
  4 19  4  0  0  0  0
M  END
> <activity>
46.2

> <InChiKey>
JNRLEMMIVRBKJE-UHFFFAOYSA-N

$$$$

  Mrv2220 08292413132D          

 17 18  0  0  0  0            999 V2000
    2.1434   -0.4125    0.0000 C   0  0  0  0  0  0  0  0  0  0  0  0
    2.1434   -1.2375    0.0000 C   0  0  0  0  0  0  0  0  0  0  0  0
    2.8579   -1.6500    0.0000 C   0  0  0  0  0  0  0  0  0  0  0  0
    2.8579   -2.4750    0.0000 C   0  0  0  0  0  0  0  0  0  0  0  0
    3.5724   -2.8875    0.0000 C   0  0  0  0  0  0  0  0  0  0  0  0
    3.5724   -3.7125    0.0000 C   0  0  0  0  0  0  0  0  0  0  0  0
    4.2868   -4.1250    0.0000 C   0  0  0  0  0  0  0  0  0  0  0  0
    4.2868   -4.9500    0.0000 C   0  0  0  0  0  0  0  0  0  0  0  0
    3.5724   -5.3625    0.0000 C   0  0  0  0  0  0  0  0  0  0  0  0
    3.5724   -6.1875    0.0000 N   0  0  0  0  0  0  0  0  0  0  0  0
    2.8579   -4.9500    0.0000 C   0  0  0  0  0  0  0  0  0  0  0  0
    2.1434   -5.3625    0.0000 C   0  0  0  0  0  0  0  0  0  0  0  0
    2.8579   -4.1250    0.0000 C   0  0  0  0  0  0  0  0  0  0  0  0
    2.1434   -2.8875    0.0000 C   0  0  0  0  0  0  0  0  0  0  0  0
    1.4289   -2.4750    0.0000 C   0  0  0  0  0  0  0  0  0  0  0  0
    1.4289   -1.6500    0.0000 C   0  0  0  0  0  0  0  0  0  0  0  0
    0.7145   -1.2375    0.0000 N   0  0  0  0  0  0  0  0  0  0  0  0
  1  2  1  0  0  0  0
  2  3  4  0  0  0  0
  3  4  4  0  0  0  0
  4  5  1  0  0  0  0
  5  6  1  0  0  0  0
  6  7  4  0  0  0  0
  7  8  4  0  0  0  0
  8  9  4  0  0  0  0
  9 10  1  0  0  0  0
  9 11  4  0  0  0  0
 11 12  1  0  0  0  0
 11 13  4  0  0  0  0
  6 13  4  0  0  0  0
  4 14  4  0  0  0  0
 14 15  4  0  0  0  0
 15 16  4  0  0  0  0
  2 16  4  0  0  0  0
 16 17  1  0  0  0  0
M  END
> <activity>
96.5

> <InChiKey>
WECDUOXQLAIPQW-UHFFFAOYSA-N

$$$$

  Mrv2220 08292413132D          

 15 16  0  0  0  0            999 V2000
    2.1434   -0.4125    0.0000 N   0  0  0  0  0  0  0  0  0  0  0  0
    2.1434   -1.2375    0.0000 C   0  0  0  0  0  0  0  0  0  0  0  0
    2.8579   -1.6500    0.0000 C   0  0  0  0  0  0  0  0  0  0  0  0
    2.8579   -2.4750    0.0000 C   0  0  0  0  0  0  0  0  0  0  0  0
    2.1434   -2.8875    0.0000 C   0  0  0  0  0  0  0  0  0  0  0  0
    2.1434   -3.7125    0.0000 O   0  0  0  0  0  0  0  0  0  0  0  0
    1.4289   -4.1250    0.0000 C   0  0  0  0  0  0  0  0  0  0  0  0
    1.4289   -4.9500    0.0000 C   0  0  0  0  0  0  0  0  0  0  0  0
    0.7145   -5.3625    0.0000 C   0  0  0  0  0  0  0  0  0  0  0  0
   -0.0000   -4.9500    0.0000 C   0  0  0  0  0  0  0  0  0  0  0  0
   -0.7145   -5.3625    0.0000 N   0  0  0  0  0  0  0  0  0  0  0  0
    0.0000   -4.1250    0.0000 C   0  0  0  0  0  0  0  0  0  0  0  0
    0.7145   -3.7125    0.0000 C   0  0  0  0  0  0  0  0  0  0  0  0
    1.4289   -2.4750    0.0000 C   0  0  0  0  0  0  0  0  0  0  0  0
    1.4289   -1.6500    0.0000 C   0  0  0  0  0  0  0  0  0  0  0  0
  1  2  1  0  0  0  0
  2  3  4  0  0  0  0
  3  4  4  0  0  0  0
  4  5  4  0  0  0  0
  5  6  1  0  0  0  0
  6  7  1  0  0  0  0
  7  8  4  0  0  0  0
  8  9  4  0  0  0  0
  9 10  4  0  0  0  0
 10 11  1  0  0  0  0
 10 12  4  0  0  0  0
 12 13  4  0  0  0  0
  7 13  4  0  0  0  0
  5 14  4  0  0  0  0
 14 15  4  0  0  0  0
  2 15  4  0  0  0  0
M  END
> <activity>
90.0

> <InChiKey>
HLBLWEWZXPIGSM-UHFFFAOYSA-N

$$$$

  Mrv2220 08292413132D          

 17 18  0  0  0  0            999 V2000
    1.5395   -1.2375    0.0000 O   0  0  0  0  0  0  0  0  0  0  0  0
    0.7145   -1.2375    0.0000 S   0  0  0  0  0  0  0  0  0  0  0  0
   -0.1105   -1.2375    0.0000 O   0  0  0  0  0  0  0  0  0  0  0  0
    0.7145   -2.0625    0.0000 C   0  0  0  0  0  0  0  0  0  0  0  0
    1.4289   -2.4750    0.0000 C   0  0  0  0  0  0  0  0  0  0  0  0
    1.4289   -3.3000    0.0000 C   0  0  0  0  0  0  0  0  0  0  0  0
    0.7145   -3.7125    0.0000 C   0  0  0  0  0  0  0  0  0  0  0  0
    0.7145   -4.5375    0.0000 O   0  0  0  0  0  0  0  0  0  0  0  0
    0.0000   -3.3000    0.0000 C   0  0  0  0  0  0  0  0  0  0  0  0
    0.0000   -2.4750    0.0000 C   0  0  0  0  0  0  0  0  0  0  0  0
    0.7145   -0.4125    0.0000 C   0  0  0  0  0  0  0  0  0  0  0  0
    0.0000    0.0000    0.0000 C   0  0  0  0  0  0  0  0  0  0  0  0
    0.0000    0.8250    0.0000 C   0  0  0  0  0  0  0  0  0  0  0  0
    0.7145    1.2375    0.0000 C   0  0  0  0  0  0  0  0  0  0  0  0
    0.7145    2.0625    0.0000 O   0  0  0  0  0  0  0  0  0  0  0  0
    1.4289    0.8250    0.0000 C   0  0  0  0  0  0  0  0  0  0  0  0
    1.4289   -0.0000    0.0000 C   0  0  0  0  0  0  0  0  0  0  0  0
  1  2  2  0  0  0  0
  2  3  2  0  0  0  0
  2  4  1  0  0  0  0
  4  5  4  0  0  0  0
  5  6  4  0  0  0  0
  6  7  4  0  0  0  0
  7  8  1  0  0  0  0
  7  9  4  0  0  0  0
  9 10  4  0  0  0  0
  4 10  4  0  0  0  0
  2 11  1  0  0  0  0
 11 12  4  0  0  0  0
 12 13  4  0  0  0  0
 13 14  4  0  0  0  0
 14 15  1  0  0  0  0
 14 16  4  0  0  0  0
 16 17  4  0  0  0  0
 11 17  4  0  0  0  0
M  END
> <activity>
87.7

> <InChiKey>
VPWNQTHUCYMVMZ-UHFFFAOYSA-N

$$$$

  Mrv2220 08292413132D          

 23 25  0  0  0  0            999 V2000
    1.5395    0.4125    0.0000 C   0  0  0  0  0  0  0  0  0  0  0  0
    2.3645    0.4125    0.0000 C   0  0  0  0  0  0  0  0  0  0  0  0
    2.3645   -0.4125    0.0000 C   0  0  0  0  0  0  0  0  0  0  0  0
    3.0789   -0.8250    0.0000 C   0  0  0  0  0  0  0  0  0  0  0  0
    3.0789   -1.6500    0.0000 C   0  0  0  0  0  0  0  0  0  0  0  0
    2.3645   -2.0625    0.0000 C   0  0  0  0  0  0  0  0  0  0  0  0
    2.3645   -2.8875    0.0000 O   0  0  0  0  0  0  0  0  0  0  0  0
    1.6500   -1.6500    0.0000 C   0  0  0  0  0  0  0  0  0  0  0  0
    1.6500   -0.8250    0.0000 C   0  0  0  0  0  0  0  0  0  0  0  0
    2.3645    1.2375    0.0000 C   0  0  0  0  0  0  0  0  0  0  0  0
    1.6500    1.6500    0.0000 C   0  0  0  0  0  0  0  0  0  0  0  0
    1.6500    2.4750    0.0000 C   0  0  0  0  0  0  0  0  0  0  0  0
    2.3645    2.8875    0.0000 C   0  0  0  0  0  0  0  0  0  0  0  0
    2.3645    3.7125    0.0000 O   0  0  0  0  0  0  0  0  0  0  0  0
    3.0789    2.4750    0.0000 C   0  0  0  0  0  0  0  0  0  0  0  0
    3.0789    1.6500    0.0000 C   0  0  0  0  0  0  0  0  0  0  0  0
    3.1895    0.4125    0.0000 C   0  0  0  0  0  0  0  0  0  0  0  0
    3.6020    1.1270    0.0000 C   0  0  0  0  0  0  0  0  0  0  0  0
    4.4270    1.1270    0.0000 C   0  0  0  0  0  0  0  0  0  0  0  0
    4.8395    0.4125    0.0000 C   0  0  0  0  0  0  0  0  0  0  0  0
    5.6645    0.4125    0.0000 O   0  0  0  0  0  0  0  0  0  0  0  0
    4.4270   -0.3020    0.0000 C   0  0  0  0  0  0  0  0  0  0  0  0
    3.6020   -0.3020    0.0000 C   0  0  0  0  0  0  0  0  0  0  0  0
  1  2  1  0  0  0  0
  2  3  1  0  0  0  0
  3  4  4  0  0  0  0
  4  5  4  0  0  0  0
  5  6  4  0  0  0  0
  6  7  1  0  0  0  0
  6  8  4  0  0  0  0
  8  9  4  0  0  0  0
  3  9  4  0  0  0  0
  2 10  1  0  0  0  0
 10 11  4  0  0  0  0
 11 12  4  0  0  0  0
 12 13  4  0  0  0  0
 13 14  1  0  0  0  0
 13 15  4  0  0  0  0
 15 16  4  0  0  0  0
 10 16  4  0  0  0  0
  2 17  1  0  0  0  0
 17 18  4  0  0  0  0
 18 19  4  0  0  0  0
 19 20  4  0  0  0  0
 20 21  1  0  0  0  0
 20 22  4  0  0  0  0
 22 23  4  0  0  0  0
 17 23  4  0  0  0  0
M  END
> <activity>
100.2

> <InChiKey>
BRPSWMCDEYMRPE-UHFFFAOYSA-N

$$$$

  Mrv2220 08292413132D          

  8  8  0  0  0  0            999 V2000
    0.5678    1.9393    0.0000 O   0  0  0  0  0  0  0  0  0  0  0  0
    0.5678    1.1143    0.0000 C   0  0  0  0  0  0  0  0  0  0  0  0
    1.2352    0.6294    0.0000 S   0  0  0  0  0  0  0  0  0  0  0  0
    0.9803   -0.1553    0.0000 S   0  0  0  0  0  0  0  0  0  0  0  0
    0.1553   -0.1553    0.0000 C   0  0  0  0  0  0  0  0  0  0  0  0
   -0.3297   -0.8227    0.0000 Cl  0  0  0  0  0  0  0  0  0  0  0  0
   -0.0997    0.6294    0.0000 C   0  0  0  0  0  0  0  0  0  0  0  0
   -0.8843    0.8843    0.0000 Cl  0  0  0  0  0  0  0  0  0  0  0  0
  1  2  2  0  0  0  0
  2  3  4  0  0  0  0
  3  4  4  0  0  0  0
  4  5  4  0  0  0  0
  5  6  1  0  0  0  0
  5  7  4  0  0  0  0
  2  7  4  0  0  0  0
  7  8  1  0  0  0  0
M  END
> <activity>
106.6

> <InChiKey>
QGSRKGWCQSATCL-UHFFFAOYSA-N

$$$$

  Mrv2220 08292413132D          

 14 14  0  0  0  0            999 V2000
    0.7145    2.0625    0.0000 C   0  0  0  0  0  0  0  0  0  0  0  0
    0.7145    1.2375    0.0000 C   0  0  0  0  0  0  0  0  0  0  0  0
    1.4289    0.8250    0.0000 C   0  0  0  0  0  0  0  0  0  0  0  0
    1.4289   -0.0000    0.0000 C   0  0  0  0  0  0  0  0  0  0  0  0
    2.1434   -0.4125    0.0000 N   0  3  0  0  0  0  0  0  0  0  0  0
    2.8579   -0.0000    0.0000 O   0  0  0  0  0  0  0  0  0  0  0  0
    2.1434   -1.2375    0.0000 O   0  5  0  0  0  0  0  0  0  0  0  0
    0.7145   -0.4125    0.0000 C   0  0  0  0  0  0  0  0  0  0  0  0
    0.0000    0.0000    0.0000 C   0  0  0  0  0  0  0  0  0  0  0  0
   -0.7145   -0.4125    0.0000 N   0  3  0  0  0  0  0  0  0  0  0  0
   -0.7145   -1.2375    0.0000 O   0  0  0  0  0  0  0  0  0  0  0  0
   -1.4289    0.0000    0.0000 O   0  5  0  0  0  0  0  0  0  0  0  0
    0.0000    0.8250    0.0000 C   0  0  0  0  0  0  0  0  0  0  0  0
   -0.7145    1.2375    0.0000 O   0  0  0  0  0  0  0  0  0  0  0  0
  1  2  1  0  0  0  0
  2  3  4  0  0  0  0
  3  4  4  0  0  0  0
  4  5  1  0  0  0  0
  5  6  2  0  0  0  0
  5  7  1  0  0  0  0
  4  8  4  0  0  0  0
  8  9  4  0  0  0  0
  9 10  1  0  0  0  0
 10 11  2  0  0  0  0
 10 12  1  0  0  0  0
  9 13  4  0  0  0  0
  2 13  4  0  0  0  0
 13 14  1  0  0  0  0
M  CHG  4   5   1   7  -1  10   1  12  -1
M  END
> <activity>
109.9

> <InChiKey>
ZXVONLUNISGICL-UHFFFAOYSA-N

$$$$

  Mrv2220 08292413132D          

 10 10  0  0  0  0            999 V2000
    1.9268    1.5559    0.0000 C   0  0  0  0  0  0  0  0  0  0  0  0
    1.1198    1.7274    0.0000 C   0  0  0  0  0  0  0  0  0  0  0  0
    0.5678    1.1143    0.0000 C   0  0  0  0  0  0  0  0  0  0  0  0
    0.0157    1.7274    0.0000 C   0  0  0  0  0  0  0  0  0  0  0  0
    1.2352    0.6294    0.0000 N   0  0  0  0  0  0  0  0  0  0  0  0
    0.9803   -0.1553    0.0000 C   0  0  0  0  0  0  0  0  0  0  0  0
    1.4652   -0.8227    0.0000 O   0  0  0  0  0  0  0  0  0  0  0  0
    0.1553   -0.1553    0.0000 N   0  0  0  0  0  0  0  0  0  0  0  0
   -0.0997    0.6294    0.0000 C   0  0  0  0  0  0  0  0  0  0  0  0
   -0.8843    0.8843    0.0000 O   0  0  0  0  0  0  0  0  0  0  0  0
  1  2  1  0  0  0  0
  2  3  1  0  0  0  0
  3  4  1  0  0  0  0
  3  5  1  0  0  0  0
  5  6  1  0  0  0  0
  6  7  2  0  0  0  0
  6  8  1  0  0  0  0
  8  9  1  0  0  0  0
  3  9  1  0  0  0  0
  9 10  2  0  0  0  0
M  END
> <activity>
10.6

> <InChiKey>
VSJRBQDMBFFHMC-UHFFFAOYSA-N

$$$$

  Mrv2220 08292413132D          

  9  9  0  0  0  0            999 V2000
    0.7145    2.0625    0.0000 O   0  0  0  0  0  0  0  0  0  0  0  0
    0.7145    1.2375    0.0000 C   0  0  0  0  0  0  0  0  0  0  0  0
    1.4289    0.8250    0.0000 N   0  0  0  0  0  0  0  0  0  0  0  0
    1.4289   -0.0000    0.0000 C   0  0  0  0  0  0  0  0  0  0  0  0
    0.7145   -0.4125    0.0000 C   0  0  0  0  0  0  0  0  0  0  0  0
    0.7145   -1.2375    0.0000 F   0  0  0  0  0  0  0  0  0  0  0  0
    0.0000    0.0000    0.0000 C   0  0  0  0  0  0  0  0  0  0  0  0
   -0.7145   -0.4125    0.0000 O   0  0  0  0  0  0  0  0  0  0  0  0
    0.0000    0.8250    0.0000 N   0  0  0  0  0  0  0  0  0  0  0  0
  1  2  2  0  0  0  0
  2  3  4  0  0  0  0
  3  4  4  0  0  0  0
  4  5  4  0  0  0  0
  5  6  1  0  0  0  0
  5  7  4  0  0  0  0
  7  8  2  0  0  0  0
  7  9  4  0  0  0  0
  2  9  4  0  0  0  0
M  STY  2   1 DAT   2 DAT
M  SAL   1  1   3
M  SDT   1 MRV_IMPLICIT_H                                        
M  SDD   1     0.5304   -0.4125    DR    ALL  0       0  
M  SED   1 IMPL_H1
M  SAL   2  1   9
M  SDT   2 MRV_IMPLICIT_H                                        
M  SDD   2     0.5304   -0.4125    DR    ALL  0       0  
M  SED   2 IMPL_H1
M  END
> <activity>
14.1

> <InChiKey>
GHASVSINZRGABV-UHFFFAOYSA-N

$$$$

  Mrv2220 08292413132D          

 12 12  0  0  0  0            999 V2000
    0.0000    2.4750    0.0000 C   0  0  0  0  0  0  0  0  0  0  0  0
    0.7145    2.0625    0.0000 O   0  0  0  0  0  0  0  0  0  0  0  0
    0.7145    1.2375    0.0000 C   0  0  0  0  0  0  0  0  0  0  0  0
    1.4289    0.8250    0.0000 C   0  0  0  0  0  0  0  0  0  0  0  0
    1.4289   -0.0000    0.0000 C   0  0  0  0  0  0  0  0  0  0  0  0
    0.7145   -0.4125    0.0000 C   0  0  0  0  0  0  0  0  0  0  0  0
    0.7145   -1.2375    0.0000 N   0  3  0  0  0  0  0  0  0  0  0  0
    1.4289   -1.6500    0.0000 O   0  0  0  0  0  0  0  0  0  0  0  0
   -0.0000   -1.6500    0.0000 O   0  5  0  0  0  0  0  0  0  0  0  0
    0.0000    0.0000    0.0000 C   0  0  0  0  0  0  0  0  0  0  0  0
    0.0000    0.8250    0.0000 C   0  0  0  0  0  0  0  0  0  0  0  0
   -0.7145    1.2375    0.0000 N   0  0  0  0  0  0  0  0  0  0  0  0
  1  2  1  0  0  0  0
  2  3  1  0  0  0  0
  3  4  4  0  0  0  0
  4  5  4  0  0  0  0
  5  6  4  0  0  0  0
  6  7  1  0  0  0  0
  7  8  2  0  0  0  0
  7  9  1  0  0  0  0
  6 10  4  0  0  0  0
 10 11  4  0  0  0  0
  3 11  4  0  0  0  0
 11 12  1  0  0  0  0
M  CHG  2   7   1   9  -1
M  END
> <activity>
69.0

> <InChiKey>
NIPDVSLAMPAWTP-UHFFFAOYSA-N

$$$$

  Mrv2220 08292413132D          

 22 23  0  0  0  0            999 V2000
    1.2665   -0.6244    0.0000 C   0  0  0  0  0  0  0  0  0  0  0  0
    0.7145   -1.2375    0.0000 C   0  0  0  0  0  0  0  0  0  0  0  0
    0.1624   -0.6244    0.0000 C   0  0  0  0  0  0  0  0  0  0  0  0
    1.3819   -1.7224    0.0000 N   0  0  0  0  0  0  0  0  0  0  0  0
    1.1270   -2.5070    0.0000 C   0  0  0  0  0  0  0  0  0  0  0  0
    1.6119   -3.1745    0.0000 O   0  0  0  0  0  0  0  0  0  0  0  0
    0.3020   -2.5070    0.0000 N   0  0  0  0  0  0  0  0  0  0  0  0
   -0.1830   -3.1745    0.0000 C   0  0  0  0  0  0  0  0  0  0  0  0
    0.1526   -3.9282    0.0000 C   0  0  0  0  0  0  0  0  0  0  0  0
   -0.3323   -4.5956    0.0000 C   0  0  0  0  0  0  0  0  0  0  0  0
   -1.1528   -4.5094    0.0000 C   0  0  0  0  0  0  0  0  0  0  0  0
   -1.6377   -5.1768    0.0000 N   0  3  0  0  0  0  0  0  0  0  0  0
   -1.3022   -5.9305    0.0000 O   0  0  0  0  0  0  0  0  0  0  0  0
   -2.4582   -5.0906    0.0000 O   0  5  0  0  0  0  0  0  0  0  0  0
   -1.4884   -3.7557    0.0000 C   0  0  0  0  0  0  0  0  0  0  0  0
   -2.3088   -3.6695    0.0000 C   0  0  0  0  0  0  0  0  0  0  0  0
   -3.1293   -3.5832    0.0000 F   0  0  0  0  0  0  0  0  0  0  0  0
   -2.2226   -2.8490    0.0000 F   0  0  0  0  0  0  0  0  0  0  0  0
   -2.3951   -4.4899    0.0000 F   0  0  0  0  0  0  0  0  0  0  0  0
   -1.0034   -3.0882    0.0000 C   0  0  0  0  0  0  0  0  0  0  0  0
    0.0470   -1.7224    0.0000 C   0  0  0  0  0  0  0  0  0  0  0  0
   -0.7376   -1.4675    0.0000 O   0  0  0  0  0  0  0  0  0  0  0  0
  1  2  1  0  0  0  0
  2  3  1  0  0  0  0
  2  4  1  0  0  0  0
  4  5  1  0  0  0  0
  5  6  2  0  0  0  0
  5  7  1  0  0  0  0
  7  8  1  0  0  0  0
  8  9  4  0  0  0  0
  9 10  4  0  0  0  0
 10 11  4  0  0  0  0
 11 12  1  0  0  0  0
 12 13  2  0  0  0  0
 12 14  1  0  0  0  0
 11 15  4  0  0  0  0
 15 16  1  0  0  0  0
 16 17  1  0  0  0  0
 16 18  1  0  0  0  0
 16 19  1  0  0  0  0
 15 20  4  0  0  0  0
  8 20  4  0  0  0  0
  7 21  1  0  0  0  0
  2 21  1  0  0  0  0
 21 22  2  0  0  0  0
M  CHG  2  12   1  14  -1
M  END
> <activity>
3.0

> <InChiKey>
XWXYUMMDTVBTOU-UHFFFAOYSA-N

$$$$

  Mrv2220 08292413132D          

  9  9  0  0  0  0            999 V2000
    1.1198    1.7274    0.0000 C   0  0  0  0  0  0  0  0  0  0  0  0
    0.5678    1.1143    0.0000 C   0  0  0  0  0  0  0  0  0  0  0  0
    0.0157    1.7274    0.0000 C   0  0  0  0  0  0  0  0  0  0  0  0
    1.2352    0.6294    0.0000 N   0  0  0  0  0  0  0  0  0  0  0  0
    0.9803   -0.1553    0.0000 C   0  0  0  0  0  0  0  0  0  0  0  0
    1.4652   -0.8227    0.0000 O   0  0  0  0  0  0  0  0  0  0  0  0
    0.1553   -0.1553    0.0000 N   0  0  0  0  0  0  0  0  0  0  0  0
   -0.0997    0.6294    0.0000 C   0  0  0  0  0  0  0  0  0  0  0  0
   -0.8843    0.8843    0.0000 O   0  0  0  0  0  0  0  0  0  0  0  0
  1  2  1  0  0  0  0
  2  3  1  0  0  0  0
  2  4  1  0  0  0  0
  4  5  1  0  0  0  0
  5  6  2  0  0  0  0
  5  7  1  0  0  0  0
  7  8  1  0  0  0  0
  2  8  1  0  0  0  0
  8  9  2  0  0  0  0
M  END
> <activity>
9.7

> <InChiKey>
YIROYDNZEPTFOL-UHFFFAOYSA-N

$$$$

  Mrv2220 08292413132D          

 19 21  0  0  0  0            999 V2000
    2.0815   -2.9942    0.0000 O   0  0  0  0  0  0  0  0  0  0  0  0
    1.5966   -2.3268    0.0000 C   0  0  0  0  0  0  0  0  0  0  0  0
    0.7716   -2.3268    0.0000 N   0  0  0  0  0  0  0  0  0  0  0  0
    0.5166   -1.5422    0.0000 C   0  0  0  0  0  0  0  0  0  0  0  0
   -0.2680   -1.2872    0.0000 O   0  0  0  0  0  0  0  0  0  0  0  0
    1.1841   -1.0572    0.0000 C   0  0  0  0  0  0  0  0  0  0  0  0
    0.6320   -0.4441    0.0000 C   0  0  0  0  0  0  0  0  0  0  0  0
   -0.1749   -0.6157    0.0000 C   0  0  0  0  0  0  0  0  0  0  0  0
   -0.7270   -0.0026    0.0000 C   0  0  0  0  0  0  0  0  0  0  0  0
   -0.4720    0.7820    0.0000 C   0  0  0  0  0  0  0  0  0  0  0  0
    0.3349    0.9536    0.0000 C   0  0  0  0  0  0  0  0  0  0  0  0
    0.8870    0.3405    0.0000 C   0  0  0  0  0  0  0  0  0  0  0  0
    1.7361   -0.4441    0.0000 C   0  0  0  0  0  0  0  0  0  0  0  0
    1.4812    0.3405    0.0000 C   0  0  0  0  0  0  0  0  0  0  0  0
    2.0332    0.9536    0.0000 C   0  0  0  0  0  0  0  0  0  0  0  0
    2.8402    0.7820    0.0000 C   0  0  0  0  0  0  0  0  0  0  0  0
    3.0951   -0.0026    0.0000 C   0  0  0  0  0  0  0  0  0  0  0  0
    2.5431   -0.6157    0.0000 C   0  0  0  0  0  0  0  0  0  0  0  0
    1.8515   -1.5422    0.0000 N   0  0  0  0  0  0  0  0  0  0  0  0
  1  2  2  0  0  0  0
  2  3  1  0  0  0  0
  3  4  1  0  0  0  0
  4  5  2  0  0  0  0
  4  6  1  0  0  0  0
  6  7  1  0  0  0  0
  7  8  4  0  0  0  0
  8  9  4  0  0  0  0
  9 10  4  0  0  0  0
 10 11  4  0  0  0  0
 11 12  4  0  0  0  0
  7 12  4  0  0  0  0
  6 13  1  0  0  0  0
 13 14  4  0  0  0  0
 14 15  4  0  0  0  0
 15 16  4  0  0  0  0
 16 17  4  0  0  0  0
 17 18  4  0  0  0  0
 13 18  4  0  0  0  0
  6 19  1  0  0  0  0
  2 19  1  0  0  0  0
M  END
> <activity>
24.1

> <InChiKey>
CXOFVDLJLONNDW-UHFFFAOYSA-N

$$$$

  Mrv2220 08292413132D          

 21 24  0  0  0  0            999 V2000
    3.5330   -3.2587    0.0000 C   0  0  0  0  0  0  0  0  0  0  0  0
    3.8928   -2.5163    0.0000 C   0  0  0  0  0  0  0  0  0  0  0  0
    4.4247   -3.1470    0.0000 C   0  0  0  0  0  0  0  0  0  0  0  0
    5.2368   -3.0018    0.0000 C   0  0  0  0  0  0  0  0  0  0  0  0
    5.5171   -2.2259    0.0000 C   0  0  0  0  0  0  0  0  0  0  0  0
    4.9853   -1.5952    0.0000 C   0  0  0  0  0  0  0  0  0  0  0  0
    5.2655   -0.8192    0.0000 C   0  0  0  0  0  0  0  0  0  0  0  0
    6.0777   -0.6740    0.0000 C   0  0  0  0  0  0  0  0  0  0  0  0
    6.6095   -1.3047    0.0000 C   0  0  0  0  0  0  0  0  0  0  0  0
    7.4216   -1.1595    0.0000 C   0  0  0  0  0  0  0  0  0  0  0  0
    7.9534   -1.7902    0.0000 C   0  0  0  0  0  0  0  0  0  0  0  0
    8.7655   -1.6450    0.0000 O   0  0  0  0  0  0  0  0  0  0  0  0
    7.6731   -2.5662    0.0000 C   0  0  0  0  0  0  0  0  0  0  0  0
    6.8610   -2.7114    0.0000 C   0  0  0  0  0  0  0  0  0  0  0  0
    6.3292   -2.0807    0.0000 C   0  0  0  0  0  0  0  0  0  0  0  0
    6.0489   -2.8566    0.0000 C   0  0  0  0  0  0  0  0  0  0  0  0
    4.1731   -1.7404    0.0000 C   0  0  0  0  0  0  0  0  0  0  0  0
    3.5218   -1.2340    0.0000 C   0  0  0  0  0  0  0  0  0  0  0  0
    2.8390   -1.6970    0.0000 C   0  0  0  0  0  0  0  0  0  0  0  0
    3.0683   -2.4895    0.0000 C   0  0  0  0  0  0  0  0  0  0  0  0
    2.5619   -3.1408    0.0000 O   0  0  0  0  0  0  0  0  0  0  0  0
  1  2  1  0  0  0  0
  2  3  1  0  0  0  0
  3  4  1  0  0  0  0
  4  5  1  0  0  0  0
  5  6  1  0  0  0  0
  6  7  1  0  0  0  0
  7  8  1  0  0  0  0
  8  9  1  0  0  0  0
  9 10  1  0  0  0  0
 10 11  1  0  0  0  0
 11 12  2  0  0  0  0
 11 13  1  0  0  0  0
 13 14  1  0  0  0  0
 14 15  1  0  0  0  0
  9 15  1  0  0  0  0
  5 15  1  0  0  0  0
 15 16  1  0  0  0  0
  6 17  1  0  0  0  0
  2 17  1  0  0  0  0
 17 18  1  0  0  0  0
 18 19  1  0  0  0  0
 19 20  1  0  0  0  0
  2 20  1  0  0  0  0
 20 21  1  0  0  0  0
M  END
> <activity>
20.9

> <InChiKey>
NVKAWKQGWWIWPM-UHFFFAOYSA-N

$$$$

  Mrv2220 08292413132D          

 24 27  0  0  0  0            999 V2000
    4.2868   -4.1250    0.0000 O   0  0  0  0  0  0  0  0  0  0  0  0
    5.0013   -3.7125    0.0000 C   0  0  0  0  0  0  0  0  0  0  0  0
    5.0013   -2.8875    0.0000 C   0  0  0  0  0  0  0  0  0  0  0  0
    5.7158   -2.4750    0.0000 C   0  0  0  0  0  0  0  0  0  0  0  0
    6.4302   -2.8875    0.0000 C   0  0  0  0  0  0  0  0  0  0  0  0
    7.1447   -2.4750    0.0000 C   0  0  0  0  0  0  0  0  0  0  0  0
    7.8592   -2.8875    0.0000 C   0  0  0  0  0  0  0  0  0  0  0  0
    8.5737   -2.4750    0.0000 S   0  0  0  0  0  0  0  0  0  0  0  0
    8.5737   -1.6500    0.0000 S   0  0  0  0  0  0  0  0  0  0  0  0
    9.2881   -1.2375    0.0000 C   0  0  0  0  0  0  0  0  0  0  0  0
    9.2881   -0.4125    0.0000 C   0  0  0  0  0  0  0  0  0  0  0  0
   10.0026    0.0000    0.0000 C   0  0  0  0  0  0  0  0  0  0  0  0
   10.7171   -0.4125    0.0000 C   0  0  0  0  0  0  0  0  0  0  0  0
   11.4315    0.0000    0.0000 C   0  0  0  0  0  0  0  0  0  0  0  0
   12.1460   -0.4125    0.0000 C   0  0  0  0  0  0  0  0  0  0  0  0
   12.8605   -0.0000    0.0000 O   0  0  0  0  0  0  0  0  0  0  0  0
   12.1460   -1.2375    0.0000 C   0  0  0  0  0  0  0  0  0  0  0  0
   11.4315   -1.6500    0.0000 C   0  0  0  0  0  0  0  0  0  0  0  0
   10.7171   -1.2375    0.0000 C   0  0  0  0  0  0  0  0  0  0  0  0
   10.0026   -1.6500    0.0000 C   0  0  0  0  0  0  0  0  0  0  0  0
    7.8592   -3.7125    0.0000 C   0  0  0  0  0  0  0  0  0  0  0  0
    7.1447   -4.1250    0.0000 C   0  0  0  0  0  0  0  0  0  0  0  0
    6.4302   -3.7125    0.0000 C   0  0  0  0  0  0  0  0  0  0  0  0
    5.7158   -4.1250    0.0000 C   0  0  0  0  0  0  0  0  0  0  0  0
  1  2  1  0  0  0  0
  2  3  4  0  0  0  0
  3  4  4  0  0  0  0
  4  5  4  0  0  0  0
  5  6  4  0  0  0  0
  6  7  4  0  0  0  0
  7  8  1  0  0  0  0
  8  9  1  0  0  0  0
  9 10  1  0  0  0  0
 10 11  4  0  0  0  0
 11 12  4  0  0  0  0
 12 13  4  0  0  0  0
 13 14  4  0  0  0  0
 14 15  4  0  0  0  0
 15 16  1  0  0  0  0
 15 17  4  0  0  0  0
 17 18  4  0  0  0  0
 18 19  4  0  0  0  0
 13 19  4  0  0  0  0
 19 20  4  0  0  0  0
 10 20  4  0  0  0  0
  7 21  4  0  0  0  0
 21 22  4  0  0  0  0
 22 23  4  0  0  0  0
  5 23  4  0  0  0  0
 23 24  4  0  0  0  0
  2 24  4  0  0  0  0
M  END
> <activity>
100.1

> <InChiKey>
AHXGXXJEEHFHDK-UHFFFAOYSA-N

$$$$

  Mrv2220 08292413132D          

  9  9  0  0  0  0            999 V2000
    0.7145    2.0625    0.0000 C   0  0  0  0  0  0  0  0  0  0  0  0
    0.7145    1.2375    0.0000 C   0  0  0  0  0  0  0  0  0  0  0  0
    1.4289    0.8250    0.0000 C   0  0  0  0  0  0  0  0  0  0  0  0
    1.4289   -0.0000    0.0000 C   0  0  0  0  0  0  0  0  0  0  0  0
    2.1434   -0.4125    0.0000 O   0  0  0  0  0  0  0  0  0  0  0  0
    0.7145   -0.4125    0.0000 N   0  0  0  0  0  0  0  0  0  0  0  0
    0.0000    0.0000    0.0000 C   0  0  0  0  0  0  0  0  0  0  0  0
   -0.7145   -0.4125    0.0000 S   0  0  0  0  0  0  0  0  0  0  0  0
    0.0000    0.8250    0.0000 N   0  0  0  0  0  0  0  0  0  0  0  0
  1  2  1  0  0  0  0
  2  3  4  0  0  0  0
  3  4  4  0  0  0  0
  4  5  2  0  0  0  0
  4  6  4  0  0  0  0
  6  7  4  0  0  0  0
  7  8  2  0  0  0  0
  7  9  4  0  0  0  0
  2  9  4  0  0  0  0
M  STY  2   1 DAT   2 DAT
M  SAL   1  1   6
M  SDT   1 MRV_IMPLICIT_H                                        
M  SDD   1     0.6482   -0.4125    DR    ALL  0       0  
M  SED   1 IMPL_H1
M  SAL   2  1   9
M  SDT   2 MRV_IMPLICIT_H                                        
M  SDD   2     0.5304   -0.4125    DR    ALL  0       0  
M  SED   2 IMPL_H1
M  END
> <activity>
16.6

> <InChiKey>
HWGBHCRJGXAGEU-UHFFFAOYSA-N

$$$$

  Mrv2220 08292413132D          

 11 12  0  0  0  0            999 V2000
    0.0000   -1.6500    0.0000 C   0  0  0  0  0  0  0  0  0  0  0  0
    0.7145   -1.2375    0.0000 C   0  0  0  0  0  0  0  0  0  0  0  0
    0.7145   -0.4125    0.0000 C   0  0  0  0  0  0  0  0  0  0  0  0
    1.4289    0.0000    0.0000 C   0  0  0  0  0  0  0  0  0  0  0  0
    2.1434   -0.4125    0.0000 C   0  0  0  0  0  0  0  0  0  0  0  0
    2.8579    0.0000    0.0000 N   0  0  0  0  0  0  0  0  0  0  0  0
    3.5724   -0.4125    0.0000 C   0  0  0  0  0  0  0  0  0  0  0  0
    3.5724   -1.2375    0.0000 C   0  0  0  0  0  0  0  0  0  0  0  0
    2.8579   -1.6500    0.0000 C   0  0  0  0  0  0  0  0  0  0  0  0
    2.1434   -1.2375    0.0000 C   0  0  0  0  0  0  0  0  0  0  0  0
    1.4289   -1.6500    0.0000 C   0  0  0  0  0  0  0  0  0  0  0  0
  1  2  1  0  0  0  0
  2  3  4  0  0  0  0
  3  4  4  0  0  0  0
  4  5  4  0  0  0  0
  5  6  4  0  0  0  0
  6  7  4  0  0  0  0
  7  8  4  0  0  0  0
  8  9  4  0  0  0  0
  9 10  4  0  0  0  0
  5 10  4  0  0  0  0
 10 11  4  0  0  0  0
  2 11  4  0  0  0  0
M  END
> <activity>
43.1

> <InChiKey>
LUYISICIYVKBTA-UHFFFAOYSA-N

$$$$

  Mrv2220 08292413132D          

 19 18  0  0  0  0            999 V2000
    1.0461   -1.4289    0.0000 C   0  0  0  0  0  0  0  0  0  0  0  0
    1.7605   -1.8414    0.0000 C   0  0  0  0  0  0  0  0  0  0  0  0
    2.4750   -1.4289    0.0000 C   0  0  0  0  0  0  0  0  0  0  0  0
    3.1895   -1.8414    0.0000 C   0  0  0  0  0  0  0  0  0  0  0  0
    3.9039   -1.4289    0.0000 C   0  0  0  0  0  0  0  0  0  0  0  0
    3.9039   -0.6039    0.0000 C   0  0  0  0  0  0  0  0  0  0  0  0
    4.6184   -0.1914    0.0000 C   0  0  0  0  0  0  0  0  0  0  0  0
    4.6184   -1.8414    0.0000 C   0  0  0  0  0  0  0  0  0  0  0  0
    5.3329   -1.4289    0.0000 C   0  0  0  0  0  0  0  0  0  0  0  0
    6.0474   -1.8414    0.0000 C   0  0  0  0  0  0  0  0  0  0  0  0
    6.7618   -1.4289    0.0000 C   0  0  0  0  0  0  0  0  0  0  0  0
    7.4763   -1.8414    0.0000 C   0  0  0  0  0  0  0  0  0  0  0  0
    8.1908   -1.4289    0.0000 C   0  0  0  0  0  0  0  0  0  0  0  0
    7.4763   -2.6664    0.0000 C   0  0  0  0  0  0  0  0  0  0  0  0
    6.0474   -2.6664    0.0000 O   0  0  0  0  0  0  0  0  0  0  0  0
    5.3329   -3.0789    0.0000 S   0  0  0  0  0  0  0  0  0  0  0  0
    4.9204   -2.3645    0.0000 O   0  0  0  0  0  0  0  0  0  0  0  0
    5.7454   -3.7934    0.0000 O   0  0  0  0  0  0  0  0  0  0  0  0
    4.6184   -3.4914    0.0000 O   0  0  0  0  0  0  0  0  0  0  0  0
  1  2  1  0  0  0  0
  2  3  1  0  0  0  0
  3  4  1  0  0  0  0
  4  5  1  0  0  0  0
  5  6  1  0  0  0  0
  6  7  1  0  0  0  0
  5  8  1  0  0  0  0
  8  9  1  0  0  0  0
  9 10  1  0  0  0  0
 10 11  1  0  0  0  0
 11 12  1  0  0  0  0
 12 13  1  0  0  0  0
 12 14  1  0  0  0  0
 10 15  1  0  0  0  0
 15 16  1  0  0  0  0
 16 17  2  0  0  0  0
 16 18  2  0  0  0  0
 16 19  1  0  0  0  0
M  END
> <activity>
103.0

> <InChiKey>
GROJOWHVXQYQGN-UHFFFAOYSA-N

$$$$

  Mrv2220 08292413132D          

 10 10  0  0  0  0            999 V2000
    2.1434   -0.4125    0.0000 C   0  0  0  0  0  0  0  0  0  0  0  0
    1.4289    0.0000    0.0000 C   0  0  0  0  0  0  0  0  0  0  0  0
    0.7145   -0.4125    0.0000 C   0  0  0  0  0  0  0  0  0  0  0  0
    0.0000    0.0000    0.0000 C   0  0  0  0  0  0  0  0  0  0  0  0
   -0.7145   -0.4125    0.0000 O   0  0  0  0  0  0  0  0  0  0  0  0
    0.0000    0.8250    0.0000 N   0  0  0  0  0  0  0  0  0  0  0  0
    0.7145    1.2375    0.0000 S   0  0  0  0  0  0  0  0  0  0  0  0
    0.1842    1.8695    0.0000 O   0  0  0  0  0  0  0  0  0  0  0  0
    1.2448    1.8695    0.0000 O   0  0  0  0  0  0  0  0  0  0  0  0
    1.4289    0.8250    0.0000 O   0  0  0  0  0  0  0  0  0  0  0  0
  1  2  1  0  0  0  0
  2  3  2  0  0  0  0
  3  4  1  0  0  0  0
  4  5  2  0  0  0  0
  4  6  1  0  0  0  0
  6  7  1  0  0  0  0
  7  8  2  0  0  0  0
  7  9  2  0  0  0  0
  7 10  1  0  0  0  0
  2 10  1  0  0  0  0
M  END
> <activity>
24.0

> <InChiKey>
YGCFIWIQZPHFLU-UHFFFAOYSA-N

$$$$

  Mrv2220 08292413132D          

 11 11  0  0  0  0            999 V2000
    0.0000    3.3000    0.0000 C   0  0  0  0  0  0  0  0  0  0  0  0
    0.0000    2.4750    0.0000 C   0  0  0  0  0  0  0  0  0  0  0  0
   -0.7145    2.0625    0.0000 O   0  0  0  0  0  0  0  0  0  0  0  0
    0.7145    2.0625    0.0000 N   0  0  0  0  0  0  0  0  0  0  0  0
    0.7145    1.2375    0.0000 C   0  0  0  0  0  0  0  0  0  0  0  0
    1.4289    0.8250    0.0000 C   0  0  0  0  0  0  0  0  0  0  0  0
    1.4289   -0.0000    0.0000 C   0  0  0  0  0  0  0  0  0  0  0  0
    0.7145   -0.4125    0.0000 C   0  0  0  0  0  0  0  0  0  0  0  0
    0.7145   -1.2375    0.0000 O   0  0  0  0  0  0  0  0  0  0  0  0
    0.0000    0.0000    0.0000 C   0  0  0  0  0  0  0  0  0  0  0  0
    0.0000    0.8250    0.0000 C   0  0  0  0  0  0  0  0  0  0  0  0
  1  2  1  0  0  0  0
  2  3  2  0  0  0  0
  2  4  1  0  0  0  0
  4  5  1  0  0  0  0
  5  6  4  0  0  0  0
  6  7  4  0  0  0  0
  7  8  4  0  0  0  0
  8  9  1  0  0  0  0
  8 10  4  0  0  0  0
 10 11  4  0  0  0  0
  5 11  4  0  0  0  0
M  END
> <activity>
-15.9

> <InChiKey>
RZVAJINKPMORJF-UHFFFAOYSA-N

$$$$

  Mrv2220 08292413132D          

 13 12  0  0  0  0            999 V2000
    2.6323   -0.5328    0.0000 C   0  0  0  0  0  0  0  0  0  0  0  0
    3.4425   -0.6887    0.0000 C   0  0  0  0  0  0  0  0  0  0  0  0
    3.9825   -0.0651    0.0000 C   0  0  0  0  0  0  0  0  0  0  0  0
    3.7125    0.7145    0.0000 C   0  0  0  0  0  0  0  0  0  0  0  0
    4.2526    1.3381    0.0000 C   0  0  0  0  0  0  0  0  0  0  0  0
    4.7927   -0.2210    0.0000 C   0  0  0  0  0  0  0  0  0  0  0  0
    5.0627   -1.0005    0.0000 C   0  0  0  0  0  0  0  0  0  0  0  0
    5.3328    0.4027    0.0000 C   0  0  0  0  0  0  0  0  0  0  0  0
    6.1429    0.2467    0.0000 C   0  0  0  0  0  0  0  0  0  0  0  0
    6.6830    0.8704    0.0000 O   0  0  0  0  0  0  0  0  0  0  0  0
    7.4931    0.7145    0.0000 C   0  0  0  0  0  0  0  0  0  0  0  0
    8.0332    1.3381    0.0000 C   0  0  0  0  0  0  0  0  0  0  0  0
    7.7632   -0.0651    0.0000 O   0  0  0  0  0  0  0  0  0  0  0  0
  1  2  1  0  0  0  0
  2  3  1  0  0  0  0
  3  4  1  0  0  0  0
  4  5  1  0  0  0  0
  3  6  1  0  0  0  0
  6  7  1  0  0  0  0
  6  8  1  0  0  0  0
  8  9  1  0  0  0  0
  9 10  1  0  0  0  0
 10 11  1  0  0  0  0
 11 12  1  0  0  0  0
 11 13  2  0  0  0  0
M  END
> <activity>
12.3

> <InChiKey>
NCHJIJCRXQRDGU-UHFFFAOYSA-N

$$$$

  Mrv2220 08292413132D          

 18 18  0  0  0  0            999 V2000
    0.7145   -1.2375    0.0000 C   0  0  0  0  0  0  0  0  0  0  0  0
    0.7145   -2.0625    0.0000 C   0  0  0  0  0  0  0  0  0  0  0  0
    1.4289   -2.4750    0.0000 O   0  0  0  0  0  0  0  0  0  0  0  0
    1.4289   -3.3000    0.0000 C   0  0  0  0  0  0  0  0  0  0  0  0
    2.1434   -3.7125    0.0000 N   0  0  0  0  0  0  0  0  0  0  0  0
    2.8579   -3.3000    0.0000 C   0  0  0  0  0  0  0  0  0  0  0  0
    3.5724   -3.7125    0.0000 O   0  0  0  0  0  0  0  0  0  0  0  0
    2.8579   -2.4750    0.0000 C   0  0  0  0  0  0  0  0  0  0  0  0
    3.5724   -2.0625    0.0000 Cl  0  0  0  0  0  0  0  0  0  0  0  0
    2.1434   -4.5375    0.0000 C   0  0  0  0  0  0  0  0  0  0  0  0
    2.8579   -4.9500    0.0000 C   0  0  0  0  0  0  0  0  0  0  0  0
    3.5724   -4.5375    0.0000 C   0  0  0  0  0  0  0  0  0  0  0  0
    2.8579   -5.7750    0.0000 C   0  0  0  0  0  0  0  0  0  0  0  0
    2.1434   -6.1875    0.0000 C   0  0  0  0  0  0  0  0  0  0  0  0
    1.4289   -5.7750    0.0000 C   0  0  0  0  0  0  0  0  0  0  0  0
    1.4289   -4.9500    0.0000 C   0  0  0  0  0  0  0  0  0  0  0  0
    0.7145   -4.5375    0.0000 C   0  0  0  0  0  0  0  0  0  0  0  0
    0.7145   -3.7125    0.0000 C   0  0  0  0  0  0  0  0  0  0  0  0
  1  2  1  0  0  0  0
  2  3  1  0  0  0  0
  3  4  1  0  0  0  0
  4  5  1  0  0  0  0
  5  6  1  0  0  0  0
  6  7  2  0  0  0  0
  6  8  1  0  0  0  0
  8  9  1  0  0  0  0
  5 10  1  0  0  0  0
 10 11  4  0  0  0  0
 11 12  1  0  0  0  0
 11 13  4  0  0  0  0
 13 14  4  0  0  0  0
 14 15  4  0  0  0  0
 15 16  4  0  0  0  0
 10 16  4  0  0  0  0
 16 17  1  0  0  0  0
 17 18  1  0  0  0  0
M  END
> <activity>
51.4

> <InChiKey>
VTNQPKFIQCLBDU-UHFFFAOYSA-N

$$$$

  Mrv2220 08292413132D          

  9  9  0  0  0  0            999 V2000
    0.0000    2.4750    0.0000 C   0  0  0  0  0  0  0  0  0  0  0  0
    0.7145    2.0625    0.0000 C   0  0  0  0  0  0  0  0  0  0  0  0
    1.4289    2.4750    0.0000 O   0  0  0  0  0  0  0  0  0  0  0  0
    0.7145    1.2375    0.0000 C   0  0  0  0  0  0  0  0  0  0  0  0
    1.4289    0.8250    0.0000 C   0  0  0  0  0  0  0  0  0  0  0  0
    1.4289   -0.0000    0.0000 C   0  0  0  0  0  0  0  0  0  0  0  0
    0.7145   -0.4125    0.0000 C   0  0  0  0  0  0  0  0  0  0  0  0
    0.0000    0.0000    0.0000 C   0  0  0  0  0  0  0  0  0  0  0  0
    0.0000    0.8250    0.0000 C   0  0  0  0  0  0  0  0  0  0  0  0
  1  2  1  0  0  0  0
  2  3  2  0  0  0  0
  2  4  1  0  0  0  0
  4  5  4  0  0  0  0
  5  6  4  0  0  0  0
  6  7  4  0  0  0  0
  7  8  4  0  0  0  0
  8  9  4  0  0  0  0
  4  9  4  0  0  0  0
M  END
> <activity>
19.5

> <InChiKey>
KWOLFJPFCHCOCG-UHFFFAOYSA-N

$$$$

  Mrv2220 08292413132D          

 18 20  0  0  0  0            999 V2000
    3.5297    0.6267    0.0000 C   0  0  0  0  0  0  0  0  0  0  0  0
    2.7464    0.3676    0.0000 C   0  0  0  0  0  0  0  0  0  0  0  0
    2.5792   -0.4402    0.0000 O   0  0  0  0  0  0  0  0  0  0  0  0
    2.1304    0.9164    0.0000 C   0  0  0  0  0  0  0  0  0  0  0  0
    2.2744    1.7560    0.0000 C   0  0  0  0  0  0  0  0  0  0  0  0
    3.0475    2.0439    0.0000 C   0  0  0  0  0  0  0  0  0  0  0  0
    1.6061    2.3053    0.0000 C   0  0  0  0  0  0  0  0  0  0  0  0
    1.1393    1.7238    0.0000 C   0  0  0  0  0  0  0  0  0  0  0  0
    0.6078    1.2560    0.0000 C   0  0  0  0  0  0  0  0  0  0  0  0
    1.2943    0.6713    0.0000 C   0  0  0  0  0  0  0  0  0  0  0  0
   -0.0594    0.7373    0.0000 C   0  0  0  0  0  0  0  0  0  0  0  0
   -0.0091   -0.0862    0.0000 C   0  0  0  0  0  0  0  0  0  0  0  0
   -0.7744    1.1648    0.0000 C   0  0  0  0  0  0  0  0  0  0  0  0
   -0.5965    1.9759    0.0000 C   0  0  0  0  0  0  0  0  0  0  0  0
    0.2281    2.0568    0.0000 C   0  0  0  0  0  0  0  0  0  0  0  0
    0.8361    2.6887    0.0000 C   0  0  0  0  0  0  0  0  0  0  0  0
    0.3138    3.3273    0.0000 C   0  0  0  0  0  0  0  0  0  0  0  0
    1.1136    3.4656    0.0000 C   0  0  0  0  0  0  0  0  0  0  0  0
  1  2  1  0  0  0  0
  2  3  2  0  0  0  0
  2  4  1  0  0  0  0
  4  5  2  0  0  0  0
  5  6  1  0  0  0  0
  5  7  1  0  0  0  0
  7  8  1  0  0  0  0
  8  9  1  0  0  0  0
  9 10  1  0  0  0  0
  4 10  1  0  0  0  0
  9 11  1  0  0  0  0
 11 12  1  0  0  0  0
 11 13  1  0  0  0  0
 13 14  1  0  0  0  0
 14 15  1  0  0  0  0
  9 15  1  0  0  0  0
 15 16  1  0  0  0  0
  7 16  1  0  0  0  0
 16 17  1  0  0  0  0
 16 18  1  0  0  0  0
M  END
> <activity>
17.7

> <InChiKey>
YBUIAJZFOGJGLJ-UHFFFAOYSA-N

$$$$

  Mrv2220 08292413132D          

 13 14  0  0  0  0            999 V2000
    2.5645    3.3000    0.0000 C   0  0  0  0  0  0  0  0  0  0  0  0
    2.5645    2.4750    0.0000 S   0  0  0  0  0  0  0  0  0  0  0  0
    3.2789    2.0625    0.0000 C   0  0  0  0  0  0  0  0  0  0  0  0
    3.9934    2.4750    0.0000 O   0  0  0  0  0  0  0  0  0  0  0  0
    3.2789    1.2375    0.0000 C   0  0  0  0  0  0  0  0  0  0  0  0
    3.9934    0.8250    0.0000 C   0  0  0  0  0  0  0  0  0  0  0  0
    3.9934    0.0000    0.0000 C   0  0  0  0  0  0  0  0  0  0  0  0
    3.2789   -0.4125    0.0000 C   0  0  0  0  0  0  0  0  0  0  0  0
    2.5645    0.0000    0.0000 C   0  0  0  0  0  0  0  0  0  0  0  0
    1.7798   -0.2549    0.0000 N   0  0  0  0  0  0  0  0  0  0  0  0
    1.2949    0.4125    0.0000 N   0  0  0  0  0  0  0  0  0  0  0  0
    1.7798    1.0799    0.0000 S   0  0  0  0  0  0  0  0  0  0  0  0
    2.5645    0.8250    0.0000 C   0  0  0  0  0  0  0  0  0  0  0  0
  1  2  1  0  0  0  0
  2  3  1  0  0  0  0
  3  4  2  0  0  0  0
  3  5  1  0  0  0  0
  5  6  4  0  0  0  0
  6  7  4  0  0  0  0
  7  8  4  0  0  0  0
  8  9  4  0  0  0  0
  9 10  4  0  0  0  0
 10 11  4  0  0  0  0
 11 12  4  0  0  0  0
 12 13  4  0  0  0  0
  5 13  4  0  0  0  0
  9 13  4  0  0  0  0
M  END
> <activity>
72.2

> <InChiKey>
UELITFHSCLAHKR-UHFFFAOYSA-N

$$$$

  Mrv2220 08292413132D          

 28 30  0  0  0  0            999 V2000
    0.0000   -1.6500    0.0000 N   0  0  0  0  0  0  0  0  0  0  0  0
    0.7145   -1.2375    0.0000 C   0  0  0  0  0  0  0  0  0  0  0  0
    0.7145   -0.4125    0.0000 C   0  0  0  0  0  0  0  0  0  0  0  0
    1.4289    0.0000    0.0000 C   0  0  0  0  0  0  0  0  0  0  0  0
    2.1434   -0.4125    0.0000 C   0  0  0  0  0  0  0  0  0  0  0  0
    2.8579    0.0000    0.0000 C   0  0  0  0  0  0  0  0  0  0  0  0
    3.5724   -0.4125    0.0000 C   0  0  0  0  0  0  0  0  0  0  0  0
    4.2868   -0.0000    0.0000 S   0  0  0  0  0  0  0  0  0  0  0  0
    5.0013    0.4125    0.0000 O   0  0  0  0  0  0  0  0  0  0  0  0
    3.8743    0.7145    0.0000 O   0  0  0  0  0  0  0  0  0  0  0  0
    4.6993   -0.7145    0.0000 O   0  0  0  0  0  0  0  0  0  0  0  0
    3.5724   -1.2375    0.0000 C   0  0  0  0  0  0  0  0  0  0  0  0
    2.8579   -1.6500    0.0000 C   0  0  0  0  0  0  0  0  0  0  0  0
    2.8579   -2.4750    0.0000 O   0  0  0  0  0  0  0  0  0  0  0  0
    2.1434   -1.2375    0.0000 C   0  0  0  0  0  0  0  0  0  0  0  0
    1.4289   -1.6500    0.0000 C   0  0  0  0  0  0  0  0  0  0  0  0
    1.4289   -2.4750    0.0000 N   0  0  0  0  0  0  0  0  0  0  0  0
    2.1434   -2.8875    0.0000 N   0  0  0  0  0  0  0  0  0  0  0  0
    2.1434   -3.7125    0.0000 C   0  0  0  0  0  0  0  0  0  0  0  0
    2.8579   -4.1250    0.0000 C   0  0  0  0  0  0  0  0  0  0  0  0
    2.8579   -4.9500    0.0000 C   0  0  0  0  0  0  0  0  0  0  0  0
    2.1434   -5.3625    0.0000 C   0  0  0  0  0  0  0  0  0  0  0  0
    1.4289   -4.9500    0.0000 C   0  0  0  0  0  0  0  0  0  0  0  0
    1.4289   -4.1250    0.0000 C   0  0  0  0  0  0  0  0  0  0  0  0
    0.7145   -3.7125    0.0000 C   0  0  0  0  0  0  0  0  0  0  0  0
    0.0000   -3.3000    0.0000 F   0  0  0  0  0  0  0  0  0  0  0  0
    1.1270   -2.9980    0.0000 F   0  0  0  0  0  0  0  0  0  0  0  0
    0.3020   -4.4270    0.0000 F   0  0  0  0  0  0  0  0  0  0  0  0
  1  2  1  0  0  0  0
  2  3  4  0  0  0  0
  3  4  4  0  0  0  0
  4  5  4  0  0  0  0
  5  6  4  0  0  0  0
  6  7  4  0  0  0  0
  7  8  1  0  0  0  0
  8  9  2  0  0  0  0
  8 10  2  0  0  0  0
  8 11  1  0  0  0  0
  7 12  4  0  0  0  0
 12 13  4  0  0  0  0
 13 14  1  0  0  0  0
 13 15  4  0  0  0  0
  5 15  4  0  0  0  0
 15 16  4  0  0  0  0
  2 16  4  0  0  0  0
 17 16  1  4  0  0  0
 17 18  2  0  0  0  0
 18 19  1  0  0  0  0
 19 20  4  0  0  0  0
 20 21  4  0  0  0  0
 21 22  4  0  0  0  0
 22 23  4  0  0  0  0
 23 24  4  0  0  0  0
 19 24  4  0  0  0  0
 24 25  1  0  0  0  0
 25 26  1  0  0  0  0
 25 27  1  0  0  0  0
 25 28  1  0  0  0  0
M  END
> <activity>
103.1

> <InChiKey>
DIAXRUOBYBLEJE-UHFFFAOYSA-N

$$$$

  Mrv2220 08292413132D          

 24 25  0  0  0  0            999 V2000
    1.4289    0.0000    0.0000 O   0  0  0  0  0  0  0  0  0  0  0  0
    2.1434   -0.4125    0.0000 C   0  0  0  0  0  0  0  0  0  0  0  0
    2.8579    0.0000    0.0000 O   0  0  0  0  0  0  0  0  0  0  0  0
    2.1434   -1.2375    0.0000 C   0  0  0  0  0  0  0  0  0  0  0  0
    2.8579   -1.6500    0.0000 C   0  0  0  0  0  0  0  0  0  0  0  0
    2.8579   -2.4750    0.0000 C   0  0  0  0  0  0  0  0  0  0  0  0
    3.5724   -2.8875    0.0000 O   0  0  0  0  0  0  0  0  0  0  0  0
    3.5724   -3.7125    0.0000 C   0  0  0  0  0  0  0  0  0  0  0  0
    4.2868   -4.1250    0.0000 C   0  0  0  0  0  0  0  0  0  0  0  0
    4.2868   -4.9500    0.0000 C   0  0  0  0  0  0  0  0  0  0  0  0
    3.5724   -5.3625    0.0000 C   0  0  0  0  0  0  0  0  0  0  0  0
    3.5724   -6.1875    0.0000 C   0  0  0  0  0  0  0  0  0  0  0  0
    3.5724   -7.0125    0.0000 F   0  0  0  0  0  0  0  0  0  0  0  0
    4.3974   -6.1875    0.0000 F   0  0  0  0  0  0  0  0  0  0  0  0
    2.7474   -6.1875    0.0000 F   0  0  0  0  0  0  0  0  0  0  0  0
    2.8579   -4.9500    0.0000 C   0  0  0  0  0  0  0  0  0  0  0  0
    2.8579   -4.1250    0.0000 C   0  0  0  0  0  0  0  0  0  0  0  0
    2.1434   -3.7125    0.0000 Cl  0  0  0  0  0  0  0  0  0  0  0  0
    2.1434   -2.8875    0.0000 C   0  0  0  0  0  0  0  0  0  0  0  0
    1.4289   -2.4750    0.0000 C   0  0  0  0  0  0  0  0  0  0  0  0
    1.4289   -1.6500    0.0000 C   0  0  0  0  0  0  0  0  0  0  0  0
    0.7145   -1.2375    0.0000 N   0  3  0  0  0  0  0  0  0  0  0  0
    0.0000   -1.6500    0.0000 O   0  0  0  0  0  0  0  0  0  0  0  0
    0.7145   -0.4125    0.0000 O   0  5  0  0  0  0  0  0  0  0  0  0
  1  2  2  0  0  0  0
  2  3  1  0  0  0  0
  2  4  1  0  0  0  0
  4  5  4  0  0  0  0
  5  6  4  0  0  0  0
  6  7  1  0  0  0  0
  7  8  1  0  0  0  0
  8  9  4  0  0  0  0
  9 10  4  0  0  0  0
 10 11  4  0  0  0  0
 11 12  1  0  0  0  0
 12 13  1  0  0  0  0
 12 14  1  0  0  0  0
 12 15  1  0  0  0  0
 11 16  4  0  0  0  0
 16 17  4  0  0  0  0
  8 17  4  0  0  0  0
 17 18  1  0  0  0  0
  6 19  4  0  0  0  0
 19 20  4  0  0  0  0
 20 21  4  0  0  0  0
  4 21  4  0  0  0  0
 21 22  1  0  0  0  0
 22 23  2  0  0  0  0
 22 24  1  0  0  0  0
M  CHG  2  22   1  24  -1
M  END
> <activity>
102.9

> <InChiKey>
NUFNQYOELLVIPL-UHFFFAOYSA-N

$$$$

  Mrv2220 08292413132D          

  5  4  0  0  0  0            999 V2000
    0.8250    1.4289    0.0000 C   0  0  0  0  0  0  0  0  0  0  0  0
    1.2375    0.7145    0.0000 C   0  0  0  0  0  0  0  0  0  0  0  0
    0.8250    0.0000    0.0000 C   0  0  0  0  0  0  0  0  0  0  0  0
    1.2375   -0.7145    0.0000 N   0  0  0  0  0  0  0  0  0  0  0  0
    0.0000    0.0000    0.0000 O   0  0  0  0  0  0  0  0  0  0  0  0
  1  2  2  0  0  0  0
  2  3  1  0  0  0  0
  3  4  1  0  0  0  0
  3  5  2  0  0  0  0
M  END
> <activity>
12.4

> <InChiKey>
HRPVXLWXLXDGHG-UHFFFAOYSA-N

$$$$

  Mrv2220 08292413132D          

 27 26  0  0  0  0            999 V2000
   11.6605    7.5572    0.0000 C   0  0  0  0  0  0  0  0  0  0  0  0
   12.3750    7.1447    0.0000 C   0  0  0  0  0  0  0  0  0  0  0  0
   13.0895    7.5572    0.0000 C   0  0  0  0  0  0  0  0  0  0  0  0
   13.8039    7.1447    0.0000 C   0  0  0  0  0  0  0  0  0  0  0  0
   14.5184    7.5572    0.0000 C   0  0  0  0  0  0  0  0  0  0  0  0
   15.2329    7.1447    0.0000 C   0  0  0  0  0  0  0  0  0  0  0  0
   15.9474    7.5572    0.0000 C   0  0  0  0  0  0  0  0  0  0  0  0
   16.6618    7.1447    0.0000 C   0  0  0  0  0  0  0  0  0  0  0  0
   17.3763    7.5572    0.0000 C   0  0  0  0  0  0  0  0  0  0  0  0
   18.0908    7.1447    0.0000 C   0  0  0  0  0  0  0  0  0  0  0  0
   18.8052    7.5572    0.0000 C   0  0  0  0  0  0  0  0  0  0  0  0
   19.5197    7.1447    0.0000 C   0  0  0  0  0  0  0  0  0  0  0  0
   19.5197    6.3197    0.0000 O   0  0  0  0  0  0  0  0  0  0  0  0
   20.2342    7.5572    0.0000 O   0  0  0  0  0  0  0  0  0  0  0  0
   20.9487    7.1447    0.0000 C   0  0  0  0  0  0  0  0  0  0  0  0
   21.6631    7.5572    0.0000 C   0  0  0  0  0  0  0  0  0  0  0  0
   21.6631    8.3822    0.0000 C   0  0  0  0  0  0  0  0  0  0  0  0
   22.3776    7.1447    0.0000 O   0  0  0  0  0  0  0  0  0  0  0  0
   23.0921    7.5572    0.0000 C   0  0  0  0  0  0  0  0  0  0  0  0
   23.0921    8.3822    0.0000 O   0  0  0  0  0  0  0  0  0  0  0  0
   23.8065    7.1447    0.0000 C   0  0  0  0  0  0  0  0  0  0  0  0
   24.5210    7.5572    0.0000 C   0  0  0  0  0  0  0  0  0  0  0  0
   25.2355    7.1447    0.0000 C   0  0  0  0  0  0  0  0  0  0  0  0
   25.9499    7.5572    0.0000 C   0  0  0  0  0  0  0  0  0  0  0  0
   26.6644    7.1447    0.0000 C   0  0  0  0  0  0  0  0  0  0  0  0
   27.3789    7.5572    0.0000 O   0  0  0  0  0  0  0  0  0  0  0  0
   26.6644    6.3197    0.0000 O   0  0  0  0  0  0  0  0  0  0  0  0
  1  2  1  0  0  0  0
  2  3  1  0  0  0  0
  3  4  1  0  0  0  0
  4  5  1  0  0  0  0
  5  6  1  0  0  0  0
  6  7  1  0  0  0  0
  7  8  1  0  0  0  0
  8  9  1  0  0  0  0
  9 10  1  0  0  0  0
 10 11  1  0  0  0  0
 11 12  1  0  0  0  0
 12 13  2  0  0  0  0
 12 14  1  0  0  0  0
 14 15  1  0  0  0  0
 15 16  1  0  0  0  0
 16 17  1  0  0  0  0
 16 18  1  0  0  0  0
 18 19  1  0  0  0  0
 19 20  2  0  0  0  0
 19 21  1  0  0  0  0
 21 22  1  0  0  0  0
 22 23  1  0  0  0  0
 23 24  1  0  0  0  0
 24 25  1  0  0  0  0
 25 26  2  0  0  0  0
 25 27  1  0  0  0  0
M  END
> <activity>
34.3

> <InChiKey>
RLXONRYGFSAXHK-UHFFFAOYSA-N

$$$$

  Mrv2220 08292413132D          

 18 18  0  0  0  0            999 V2000
    6.4302   -2.8875    0.0000 C   0  0  0  0  0  0  0  0  0  0  0  0
    5.7158   -2.4750    0.0000 C   0  0  0  0  0  0  0  0  0  0  0  0
    5.0013   -2.8875    0.0000 C   0  0  0  0  0  0  0  0  0  0  0  0
    5.0013   -3.7125    0.0000 C   0  0  0  0  0  0  0  0  0  0  0  0
    4.2868   -4.1250    0.0000 C   0  0  0  0  0  0  0  0  0  0  0  0
    3.5724   -3.7125    0.0000 C   0  0  0  0  0  0  0  0  0  0  0  0
    3.5724   -2.8875    0.0000 C   0  0  0  0  0  0  0  0  0  0  0  0
    2.8579   -2.4750    0.0000 C   0  0  0  0  0  0  0  0  0  0  0  0
    2.8579   -1.6500    0.0000 C   0  0  0  0  0  0  0  0  0  0  0  0
    4.2868   -2.4750    0.0000 C   0  0  0  0  0  0  0  0  0  0  0  0
    4.2868   -1.6500    0.0000 N   0  0  0  0  0  0  0  0  0  0  0  0
    3.5724   -1.2375    0.0000 C   0  0  0  0  0  0  0  0  0  0  0  0
    3.5724   -0.4125    0.0000 O   0  0  0  0  0  0  0  0  0  0  0  0
    2.8579    0.0000    0.0000 C   0  0  0  0  0  0  0  0  0  0  0  0
    5.0013   -1.2375    0.0000 C   0  0  0  0  0  0  0  0  0  0  0  0
    5.7158   -1.6500    0.0000 O   0  0  0  0  0  0  0  0  0  0  0  0
    5.0013   -0.4125    0.0000 C   0  0  0  0  0  0  0  0  0  0  0  0
    5.7158    0.0000    0.0000 Cl  0  0  0  0  0  0  0  0  0  0  0  0
  1  2  1  0  0  0  0
  2  3  1  0  0  0  0
  3  4  4  0  0  0  0
  4  5  4  0  0  0  0
  5  6  4  0  0  0  0
  6  7  4  0  0  0  0
  7  8  1  0  0  0  0
  8  9  1  0  0  0  0
  7 10  4  0  0  0  0
  3 10  4  0  0  0  0
 10 11  1  0  0  0  0
 11 12  1  0  0  0  0
 12 13  1  0  0  0  0
 13 14  1  0  0  0  0
 11 15  1  0  0  0  0
 15 16  2  0  0  0  0
 15 17  1  0  0  0  0
 17 18  1  0  0  0  0
M  END
> <activity>
39.7

> <InChiKey>
XCSGPAVHZFQHGE-UHFFFAOYSA-N

$$$$

  Mrv2220 08292413132D          

  8  7  0  0  0  0            999 V2000
    2.4750    1.4289    0.0000 C   0  0  0  0  0  0  0  0  0  0  0  0
    1.6500    1.4289    0.0000 S   0  0  0  0  0  0  0  0  0  0  0  0
    1.2375    0.7145    0.0000 C   0  0  0  0  0  0  0  0  0  0  0  0
    0.5230    1.1270    0.0000 C   0  0  0  0  0  0  0  0  0  0  0  0
    1.9520    0.3020    0.0000 C   0  0  0  0  0  0  0  0  0  0  0  0
    0.8250    0.0000    0.0000 C   0  0  0  0  0  0  0  0  0  0  0  0
    0.0000    0.0000    0.0000 N   0  0  0  0  0  0  0  0  0  0  0  0
   -0.4125   -0.7145    0.0000 O   0  0  0  0  0  0  0  0  0  0  0  0
  1  2  1  0  0  0  0
  2  3  1  0  0  0  0
  3  4  1  0  0  0  0
  3  5  1  0  0  0  0
  3  6  1  0  0  0  0
  6  7  2  0  0  0  0
  7  8  1  4  0  0  0
M  END
> <activity>
10.1

> <InChiKey>
ZFGMCJAXIZTVJA-UHFFFAOYSA-N

$$$$

  Mrv2220 08292413132D          

 14 13  0  0  0  0            999 V2000
    3.3000    1.4289    0.0000 C   0  0  0  0  0  0  0  0  0  0  0  0
    2.4750    1.4289    0.0000 N   0  0  0  0  0  0  0  0  0  0  0  0
    2.0625    0.7145    0.0000 C   0  0  0  0  0  0  0  0  0  0  0  0
    2.4750    0.0000    0.0000 O   0  0  0  0  0  0  0  0  0  0  0  0
    1.2375    0.7145    0.0000 O   0  0  0  0  0  0  0  0  0  0  0  0
    0.8250    0.0000    0.0000 N   0  0  0  0  0  0  0  0  0  0  0  0
    0.0000    0.0000    0.0000 C   0  0  0  0  0  0  0  0  0  0  0  0
   -0.4125   -0.7145    0.0000 C   0  0  0  0  0  0  0  0  0  0  0  0
   -1.1270   -0.3020    0.0000 C   0  0  0  0  0  0  0  0  0  0  0  0
    0.3020   -1.1270    0.0000 C   0  0  0  0  0  0  0  0  0  0  0  0
   -0.8250   -1.4289    0.0000 S   0  0  0  0  0  0  0  0  0  0  0  0
   -1.2375   -2.1434    0.0000 C   0  0  0  0  0  0  0  0  0  0  0  0
   -1.5395   -1.0164    0.0000 O   0  0  0  0  0  0  0  0  0  0  0  0
   -0.1105   -1.8414    0.0000 O   0  0  0  0  0  0  0  0  0  0  0  0
  1  2  1  0  0  0  0
  2  3  1  0  0  0  0
  3  4  2  0  0  0  0
  3  5  1  0  0  0  0
  6  5  1  4  0  0  0
  6  7  2  0  0  0  0
  7  8  1  0  0  0  0
  8  9  1  0  0  0  0
  8 10  1  0  0  0  0
  8 11  1  0  0  0  0
 11 12  1  0  0  0  0
 11 13  2  0  0  0  0
 11 14  2  0  0  0  0
M  END
> <activity>
7.8

> <InChiKey>
YRRKLBAKDXSTNC-UHFFFAOYSA-N

$$$$

  Mrv2220 08292413132D          

 13 12  0  0  0  0            999 V2000
    3.3000    1.4289    0.0000 C   0  0  0  0  0  0  0  0  0  0  0  0
    2.4750    1.4289    0.0000 N   0  0  0  0  0  0  0  0  0  0  0  0
    2.0625    0.7145    0.0000 C   0  0  0  0  0  0  0  0  0  0  0  0
    2.4750    0.0000    0.0000 O   0  0  0  0  0  0  0  0  0  0  0  0
    1.2375    0.7145    0.0000 O   0  0  0  0  0  0  0  0  0  0  0  0
    0.8250    0.0000    0.0000 N   0  0  0  0  0  0  0  0  0  0  0  0
    0.0000    0.0000    0.0000 C   0  0  0  0  0  0  0  0  0  0  0  0
   -0.4125   -0.7145    0.0000 C   0  0  0  0  0  0  0  0  0  0  0  0
   -1.1270   -0.3020    0.0000 C   0  0  0  0  0  0  0  0  0  0  0  0
    0.3020   -1.1270    0.0000 C   0  0  0  0  0  0  0  0  0  0  0  0
   -0.8250   -1.4289    0.0000 S   0  3  0  0  0  0  0  0  0  0  0  0
   -0.4125   -2.1434    0.0000 C   0  0  0  0  0  0  0  0  0  0  0  0
   -1.6500   -1.4289    0.0000 O   0  5  0  0  0  0  0  0  0  0  0  0
  1  2  1  0  0  0  0
  2  3  1  0  0  0  0
  3  4  2  0  0  0  0
  3  5  1  0  0  0  0
  6  5  1  4  0  0  0
  6  7  2  0  0  0  0
  7  8  1  0  0  0  0
  8  9  1  0  0  0  0
  8 10  1  0  0  0  0
  8 11  1  0  0  0  0
 11 12  1  0  0  0  0
 11 13  1  0  0  0  0
M  CHG  2  11   1  13  -1
M  END
> <activity>
-5.7

> <InChiKey>
BXPMAGSOWXBZHS-UHFFFAOYSA-N

$$$$

  Mrv2220 08292413132D          

 18 21  0  0  0  0            999 V2000
   -1.8933    1.6388    0.0000 Cl  0  0  0  0  0  0  0  0  0  0  0  0
   -1.3464    0.9075    0.0000 C   0  0  0  0  0  0  0  0  0  0  0  0
   -1.3464   -0.0825    0.0000 C   0  0  0  0  0  0  0  0  0  0  0  0
   -1.8932   -0.8138    0.0000 Cl  0  0  0  0  0  0  0  0  0  0  0  0
   -0.7145   -0.4125    0.0000 C   0  0  0  0  0  0  0  0  0  0  0  0
   -0.6225   -1.2974    0.0000 Cl  0  0  0  0  0  0  0  0  0  0  0  0
   -0.0000   -0.0000    0.0000 C   0  0  0  0  0  0  0  0  0  0  0  0
    0.7145   -0.4125    0.0000 C   0  0  0  0  0  0  0  0  0  0  0  0
    1.4289    0.0000    0.0000 C   0  0  0  0  0  0  0  0  0  0  0  0
    1.4289    0.8250    0.0000 C   0  0  0  0  0  0  0  0  0  0  0  0
    0.7145    1.2375    0.0000 C   0  0  0  0  0  0  0  0  0  0  0  0
    0.5082    0.4125    0.0000 C   0  0  0  0  0  0  0  0  0  0  0  0
    0.0000    0.8250    0.0000 C   0  0  0  0  0  0  0  0  0  0  0  0
   -0.7145    1.2375    0.0000 C   0  0  0  0  0  0  0  0  0  0  0  0
   -0.6226    2.1224    0.0000 Cl  0  0  0  0  0  0  0  0  0  0  0  0
   -0.9207    0.4125    0.0000 C   0  0  0  0  0  0  0  0  0  0  0  0
   -1.8974    0.7227    0.0000 Cl  0  0  0  0  0  0  0  0  0  0  0  0
   -1.8974    0.1023    0.0000 Cl  0  0  0  0  0  0  0  0  0  0  0  0
  1  2  1  0  0  0  0
  2  3  2  0  0  0  0
  3  4  1  0  0  0  0
  3  5  1  0  0  0  0
  5  6  1  0  0  0  0
  5  7  1  0  0  0  0
  7  8  1  0  0  0  0
  8  9  1  0  0  0  0
  9 10  2  0  0  0  0
 10 11  1  0  0  0  0
 11 12  1  0  0  0  0
  8 12  1  0  0  0  0
 11 13  1  0  0  0  0
  7 13  1  0  0  0  0
 13 14  1  0  0  0  0
  2 14  1  0  0  0  0
 14 15  1  0  0  0  0
 14 16  1  0  0  0  0
  5 16  1  0  0  0  0
 16 17  1  0  0  0  0
 16 18  1  0  0  0  0
M  END
> <activity>
-15.0

> <InChiKey>
QBYJBZPUGVGKQQ-UHFFFAOYSA-N

$$$$

  Mrv2220 08292413132D          

 17 17  0  0  0  0            999 V2000
    8.2500    4.2868    0.0000 C   0  0  0  0  0  0  0  0  0  0  0  0
    8.9645    4.6993    0.0000 C   0  0  0  0  0  0  0  0  0  0  0  0
    9.6789    4.2868    0.0000 C   0  0  0  0  0  0  0  0  0  0  0  0
   10.3934    4.6993    0.0000 C   0  0  0  0  0  0  0  0  0  0  0  0
   11.1079    4.2868    0.0000 C   0  0  0  0  0  0  0  0  0  0  0  0
   11.8224    4.6993    0.0000 C   0  0  0  0  0  0  0  0  0  0  0  0
   12.5368    4.2868    0.0000 C   0  0  0  0  0  0  0  0  0  0  0  0
   13.2513    4.6993    0.0000 C   0  0  0  0  0  0  0  0  0  0  0  0
   13.9658    4.2868    0.0000 C   0  0  0  0  0  0  0  0  0  0  0  0
   14.6802    4.6993    0.0000 C   0  0  0  0  0  0  0  0  0  0  0  0
   15.3947    4.2868    0.0000 C   0  0  0  0  0  0  0  0  0  0  0  0
   16.1092    4.6993    0.0000 C   0  0  0  0  0  0  0  0  0  0  0  0
   16.8237    4.2868    0.0000 O   0  0  0  0  0  0  0  0  0  0  0  0
   17.5381    4.6993    0.0000 C   0  0  0  0  0  0  0  0  0  0  0  0
   18.2526    4.2868    0.0000 C   0  0  0  0  0  0  0  0  0  0  0  0
   19.0776    4.2868    0.0000 C   0  0  0  0  0  0  0  0  0  0  0  0
   18.6651    3.5724    0.0000 O   0  0  0  0  0  0  0  0  0  0  0  0
  1  2  1  0  0  0  0
  2  3  1  0  0  0  0
  3  4  1  0  0  0  0
  4  5  1  0  0  0  0
  5  6  1  0  0  0  0
  6  7  1  0  0  0  0
  7  8  1  0  0  0  0
  8  9  1  0  0  0  0
  9 10  1  0  0  0  0
 10 11  1  0  0  0  0
 11 12  1  0  0  0  0
 12 13  1  0  0  0  0
 13 14  1  0  0  0  0
 14 15  1  0  0  0  0
 15 16  1  0  0  0  0
 16 17  1  0  0  0  0
 15 17  1  0  0  0  0
M  END
> <activity>
57.7

> <InChiKey>
VMSIYTPWZLSMOH-UHFFFAOYSA-N

$$$$

  Mrv2220 08292413132D          

 11 11  0  0  0  0            999 V2000
   -0.1467    3.1768    0.0000 N   0  0  0  0  0  0  0  0  0  0  0  0
   -0.1467    2.3518    0.0000 C   0  0  0  0  0  0  0  0  0  0  0  0
   -0.8612    1.9393    0.0000 O   0  0  0  0  0  0  0  0  0  0  0  0
    0.5678    1.9393    0.0000 N   0  0  0  0  0  0  0  0  0  0  0  0
    0.5678    1.1143    0.0000 C   0  0  0  0  0  0  0  0  0  0  0  0
    1.2352    0.6294    0.0000 N   0  0  0  0  0  0  0  0  0  0  0  0
    0.9803   -0.1553    0.0000 C   0  0  0  0  0  0  0  0  0  0  0  0
    1.4652   -0.8227    0.0000 O   0  0  0  0  0  0  0  0  0  0  0  0
    0.1553   -0.1553    0.0000 N   0  0  0  0  0  0  0  0  0  0  0  0
   -0.0997    0.6294    0.0000 C   0  0  0  0  0  0  0  0  0  0  0  0
   -0.8843    0.8843    0.0000 O   0  0  0  0  0  0  0  0  0  0  0  0
  1  2  1  0  0  0  0
  2  3  2  0  0  0  0
  2  4  1  0  0  0  0
  4  5  1  0  0  0  0
  5  6  1  0  0  0  0
  6  7  1  0  0  0  0
  7  8  2  0  0  0  0
  7  9  1  0  0  0  0
  9 10  1  0  0  0  0
  5 10  1  0  0  0  0
 10 11  2  0  0  0  0
M  END
> <activity>
9.5

> <InChiKey>
POJWUDADGALRAB-UHFFFAOYSA-N

$$$$

  Mrv2220 08292413132D          

 30 32  0  0  0  0            999 V2000
    2.1434   -2.8875    0.0000 C   0  0  0  0  0  0  0  0  0  0  0  0
    2.1434   -3.7125    0.0000 O   0  0  0  0  0  0  0  0  0  0  0  0
    1.4289   -4.1250    0.0000 C   0  0  0  0  0  0  0  0  0  0  0  0
    1.4289   -4.9500    0.0000 C   0  0  0  0  0  0  0  0  0  0  0  0
    0.7145   -5.3625    0.0000 C   0  0  0  0  0  0  0  0  0  0  0  0
    0.7145   -6.1875    0.0000 S   0  0  0  0  0  0  0  0  0  0  0  0
    0.7145   -7.0125    0.0000 O   0  0  0  0  0  0  0  0  0  0  0  0
    1.5395   -6.1875    0.0000 O   0  0  0  0  0  0  0  0  0  0  0  0
   -0.1105   -6.1875    0.0000 O   0  0  0  0  0  0  0  0  0  0  0  0
    0.0000   -4.9500    0.0000 C   0  0  0  0  0  0  0  0  0  0  0  0
   -0.7145   -5.3625    0.0000 C   0  0  0  0  0  0  0  0  0  0  0  0
    0.0000   -4.1250    0.0000 C   0  0  0  0  0  0  0  0  0  0  0  0
    0.7145   -3.7125    0.0000 C   0  0  0  0  0  0  0  0  0  0  0  0
    0.7145   -2.8875    0.0000 N   0  0  0  0  0  0  0  0  0  0  0  0
    1.4289   -2.4750    0.0000 N   0  0  0  0  0  0  0  0  0  0  0  0
    1.4289   -1.6500    0.0000 C   0  0  0  0  0  0  0  0  0  0  0  0
    0.7145   -1.2375    0.0000 C   0  0  0  0  0  0  0  0  0  0  0  0
    0.0000   -1.6500    0.0000 O   0  0  0  0  0  0  0  0  0  0  0  0
    0.7145   -0.4125    0.0000 C   0  0  0  0  0  0  0  0  0  0  0  0
    1.4289    0.0000    0.0000 C   0  0  0  0  0  0  0  0  0  0  0  0
    2.1434   -0.4125    0.0000 C   0  0  0  0  0  0  0  0  0  0  0  0
    2.8579    0.0000    0.0000 C   0  0  0  0  0  0  0  0  0  0  0  0
    3.5724   -0.4125    0.0000 C   0  0  0  0  0  0  0  0  0  0  0  0
    4.2868   -0.0000    0.0000 S   0  0  0  0  0  0  0  0  0  0  0  0
    5.0013    0.4125    0.0000 O   0  0  0  0  0  0  0  0  0  0  0  0
    4.6993   -0.7145    0.0000 O   0  0  0  0  0  0  0  0  0  0  0  0
    3.8743    0.7145    0.0000 O   0  0  0  0  0  0  0  0  0  0  0  0
    3.5724   -1.2375    0.0000 C   0  0  0  0  0  0  0  0  0  0  0  0
    2.8579   -1.6500    0.0000 C   0  0  0  0  0  0  0  0  0  0  0  0
    2.1434   -1.2375    0.0000 C   0  0  0  0  0  0  0  0  0  0  0  0
  1  2  1  0  0  0  0
  2  3  1  0  0  0  0
  3  4  4  0  0  0  0
  4  5  4  0  0  0  0
  5  6  1  0  0  0  0
  6  7  2  0  0  0  0
  6  8  2  0  0  0  0
  6  9  1  0  0  0  0
  5 10  4  0  0  0  0
 10 11  1  0  0  0  0
 10 12  4  0  0  0  0
 12 13  4  0  0  0  0
  3 13  4  0  0  0  0
 14 13  1  4  0  0  0
 14 15  2  0  0  0  0
 15 16  1  0  0  0  0
 16 17  4  0  0  0  0
 17 18  1  0  0  0  0
 17 19  4  0  0  0  0
 19 20  4  0  0  0  0
 20 21  4  0  0  0  0
 21 22  4  0  0  0  0
 22 23  4  0  0  0  0
 23 24  1  0  0  0  0
 24 25  2  0  0  0  0
 24 26  2  0  0  0  0
 24 27  1  0  0  0  0
 23 28  4  0  0  0  0
 28 29  4  0  0  0  0
 29 30  4  0  0  0  0
 16 30  4  0  0  0  0
 21 30  4  0  0  0  0
M  END
> <activity>
94.8

> <InChiKey>
UQWIHFJXDRNUDP-UHFFFAOYSA-N

$$$$

  Mrv2220 08292413132D          

  4  3  0  0  0  0            999 V2000
    2.0625   -0.7145    0.0000 C   0  0  0  0  0  0  0  0  0  0  0  0
    1.2375   -0.7145    0.0000 C   0  0  0  0  0  0  0  0  0  0  0  0
    0.8250    0.0000    0.0000 C   0  0  0  0  0  0  0  0  0  0  0  0
    0.0000    0.0000    0.0000 O   0  0  0  0  0  0  0  0  0  0  0  0
  1  2  2  0  0  0  0
  2  3  1  0  0  0  0
  3  4  1  0  0  0  0
M  END
> <activity>
5.0

> <InChiKey>
XXROGKLTLUQVRX-UHFFFAOYSA-N

$$$$

  Mrv2220 08292413132D          

 15 15  0  0  0  0            999 V2000
    2.1434   -1.2375    0.0000 C   0  0  0  0  0  0  0  0  0  0  0  0
    2.8579   -0.8250    0.0000 C   0  0  0  0  0  0  0  0  0  0  0  0
    3.5724   -1.2375    0.0000 C   0  0  0  0  0  0  0  0  0  0  0  0
    4.2868   -0.8250    0.0000 C   0  0  0  0  0  0  0  0  0  0  0  0
    5.0013   -1.2375    0.0000 C   0  0  0  0  0  0  0  0  0  0  0  0
    5.7158   -0.8250    0.0000 C   0  0  0  0  0  0  0  0  0  0  0  0
    5.7158    0.0000    0.0000 C   0  0  0  0  0  0  0  0  0  0  0  0
    6.4302    0.4125    0.0000 O   0  0  0  0  0  0  0  0  0  0  0  0
    6.4302   -1.2375    0.0000 C   0  0  0  0  0  0  0  0  0  0  0  0
    6.4302   -2.0625    0.0000 C   0  0  0  0  0  0  0  0  0  0  0  0
    7.1447   -2.4750    0.0000 C   0  0  0  0  0  0  0  0  0  0  0  0
    7.1447   -3.3000    0.0000 C   0  0  0  0  0  0  0  0  0  0  0  0
    6.4302   -3.7125    0.0000 C   0  0  0  0  0  0  0  0  0  0  0  0
    5.7158   -3.3000    0.0000 C   0  0  0  0  0  0  0  0  0  0  0  0
    5.7158   -2.4750    0.0000 C   0  0  0  0  0  0  0  0  0  0  0  0
  1  2  1  0  0  0  0
  2  3  1  0  0  0  0
  3  4  1  0  0  0  0
  4  5  1  0  0  0  0
  5  6  1  0  0  0  0
  6  7  1  0  0  0  0
  7  8  2  0  0  0  0
  6  9  2  0  0  0  0
  9 10  1  4  0  0  0
 10 11  4  0  0  0  0
 11 12  4  0  0  0  0
 12 13  4  0  0  0  0
 13 14  4  0  0  0  0
 14 15  4  0  0  0  0
 10 15  4  0  0  0  0
M  END
> <activity>
77.3

> <InChiKey>
HMKKIXGYKWDQSV-UHFFFAOYSA-N

$$$$

  Mrv2220 08292413132D          

 14 14  0  0  0  0            999 V2000
    2.8579    3.3000    0.0000 C   0  0  0  0  0  0  0  0  0  0  0  0
    2.8579    2.4750    0.0000 C   0  0  0  0  0  0  0  0  0  0  0  0
    3.5724    2.0625    0.0000 O   0  0  0  0  0  0  0  0  0  0  0  0
    2.1434    2.0625    0.0000 C   0  0  0  0  0  0  0  0  0  0  0  0
    2.1434    1.2375    0.0000 C   0  0  0  0  0  0  0  0  0  0  0  0
    1.4289    0.8250    0.0000 C   0  0  0  0  0  0  0  0  0  0  0  0
    1.4289   -0.0000    0.0000 C   0  0  0  0  0  0  0  0  0  0  0  0
    2.1434   -0.4125    0.0000 C   0  0  0  0  0  0  0  0  0  0  0  0
    0.7145   -0.4125    0.0000 C   0  0  0  0  0  0  0  0  0  0  0  0
    0.0000    0.0000    0.0000 C   0  0  0  0  0  0  0  0  0  0  0  0
    0.0000    0.8250    0.0000 C   0  0  0  0  0  0  0  0  0  0  0  0
    0.7145    1.2375    0.0000 C   0  0  0  0  0  0  0  0  0  0  0  0
    0.3272    1.9659    0.0000 C   0  0  0  0  0  0  0  0  0  0  0  0
    1.1018    1.9659    0.0000 C   0  0  0  0  0  0  0  0  0  0  0  0
  1  2  1  0  0  0  0
  2  3  2  0  0  0  0
  4  2  1  4  0  0  0
  4  5  2  0  0  0  0
  5  6  1  0  0  0  0
  6  7  1  0  0  0  0
  7  8  1  0  0  0  0
  7  9  2  0  0  0  0
  9 10  1  0  0  0  0
 10 11  1  0  0  0  0
 11 12  1  0  0  0  0
  6 12  1  0  0  0  0
 12 13  1  0  0  0  0
 12 14  1  0  0  0  0
M  END
> <activity>
46.2

> <InChiKey>
UZFLPKAIBPNNCA-UHFFFAOYSA-N

$$$$

  Mrv2220 08292413132D          

 15 15  0  0  0  0            999 V2000
    2.8579    3.3000    0.0000 C   0  0  0  0  0  0  0  0  0  0  0  0
    2.8579    2.4750    0.0000 C   0  0  0  0  0  0  0  0  0  0  0  0
    3.5724    2.0625    0.0000 O   0  0  0  0  0  0  0  0  0  0  0  0
    2.1434    2.0625    0.0000 C   0  0  0  0  0  0  0  0  0  0  0  0
    1.4289    2.4750    0.0000 C   0  0  0  0  0  0  0  0  0  0  0  0
    2.1434    1.2375    0.0000 C   0  0  0  0  0  0  0  0  0  0  0  0
    1.4289    0.8250    0.0000 C   0  0  0  0  0  0  0  0  0  0  0  0
    1.4289   -0.0000    0.0000 C   0  0  0  0  0  0  0  0  0  0  0  0
    2.1434   -0.4125    0.0000 C   0  0  0  0  0  0  0  0  0  0  0  0
    0.7145   -0.4125    0.0000 C   0  0  0  0  0  0  0  0  0  0  0  0
    0.0000    0.0000    0.0000 C   0  0  0  0  0  0  0  0  0  0  0  0
    0.0000    0.8250    0.0000 C   0  0  0  0  0  0  0  0  0  0  0  0
    0.7145    1.2375    0.0000 C   0  0  0  0  0  0  0  0  0  0  0  0
    0.3272    1.9659    0.0000 C   0  0  0  0  0  0  0  0  0  0  0  0
    1.1018    1.9659    0.0000 C   0  0  0  0  0  0  0  0  0  0  0  0
  1  2  1  0  0  0  0
  2  3  2  0  0  0  0
  2  4  1  0  0  0  0
  4  5  1  0  0  0  0
  4  6  2  0  0  0  0
  6  7  1  4  0  0  0
  7  8  1  0  0  0  0
  8  9  1  0  0  0  0
  8 10  2  0  0  0  0
 10 11  1  0  0  0  0
 11 12  1  0  0  0  0
 12 13  1  0  0  0  0
  7 13  1  0  0  0  0
 13 14  1  0  0  0  0
 13 15  1  0  0  0  0
M  END
> <activity>
41.3

> <InChiKey>
JRJBVWJSTHECJK-UHFFFAOYSA-N

$$$$

  Mrv2220 08292413132D          

 20 19  0  0  0  0            999 V2000
    6.7105    4.6993    0.0000 C   0  0  0  0  0  0  0  0  0  0  0  0
    7.4250    4.2868    0.0000 C   0  0  0  0  0  0  0  0  0  0  0  0
    8.1395    4.6993    0.0000 C   0  0  0  0  0  0  0  0  0  0  0  0
    8.8539    4.2868    0.0000 C   0  0  0  0  0  0  0  0  0  0  0  0
    9.5684    4.6993    0.0000 C   0  0  0  0  0  0  0  0  0  0  0  0
   10.2829    4.2868    0.0000 C   0  0  0  0  0  0  0  0  0  0  0  0
   10.9974    4.6993    0.0000 C   0  0  0  0  0  0  0  0  0  0  0  0
   11.7118    4.2868    0.0000 C   0  0  0  0  0  0  0  0  0  0  0  0
   12.4263    4.6993    0.0000 C   0  0  0  0  0  0  0  0  0  0  0  0
   13.1408    4.2868    0.0000 C   0  0  0  0  0  0  0  0  0  0  0  0
   13.8552    4.6993    0.0000 C   0  0  0  0  0  0  0  0  0  0  0  0
   14.5697    4.2868    0.0000 C   0  0  0  0  0  0  0  0  0  0  0  0
   15.2842    4.6993    0.0000 O   0  0  0  0  0  0  0  0  0  0  0  0
   15.9987    4.2868    0.0000 C   0  0  0  0  0  0  0  0  0  0  0  0
   16.7131    4.6993    0.0000 C   0  0  0  0  0  0  0  0  0  0  0  0
   17.4276    4.2868    0.0000 O   0  0  0  0  0  0  0  0  0  0  0  0
   18.1421    4.6993    0.0000 S   0  0  0  0  0  0  0  0  0  0  0  0
   18.8565    5.1118    0.0000 O   0  0  0  0  0  0  0  0  0  0  0  0
   18.5546    3.9849    0.0000 O   0  0  0  0  0  0  0  0  0  0  0  0
   17.7296    5.4138    0.0000 O   0  0  0  0  0  0  0  0  0  0  0  0
  1  2  1  0  0  0  0
  2  3  1  0  0  0  0
  3  4  1  0  0  0  0
  4  5  1  0  0  0  0
  5  6  1  0  0  0  0
  6  7  1  0  0  0  0
  7  8  1  0  0  0  0
  8  9  1  0  0  0  0
  9 10  1  0  0  0  0
 10 11  1  0  0  0  0
 11 12  1  0  0  0  0
 12 13  1  0  0  0  0
 13 14  1  0  0  0  0
 14 15  1  0  0  0  0
 15 16  1  0  0  0  0
 16 17  1  0  0  0  0
 17 18  2  0  0  0  0
 17 19  2  0  0  0  0
 17 20  1  0  0  0  0
M  END
> <activity>
98.4

> <InChiKey>
QTDIEDOANJISNP-UHFFFAOYSA-N

$$$$

  Mrv2220 08292413132D          

 16 16  0  0  0  0            999 V2000
   -2.1434    5.3625    0.0000 C   0  0  0  0  0  0  0  0  0  0  0  0
   -1.4289    4.9500    0.0000 C   0  0  0  0  0  0  0  0  0  0  0  0
   -1.4289    4.1250    0.0000 C   0  0  0  0  0  0  0  0  0  0  0  0
   -0.7145    3.7125    0.0000 C   0  0  0  0  0  0  0  0  0  0  0  0
    0.0000    4.1250    0.0000 O   0  0  0  0  0  0  0  0  0  0  0  0
   -0.7145    2.8875    0.0000 O   0  0  0  0  0  0  0  0  0  0  0  0
    0.0000    2.4750    0.0000 C   0  0  0  0  0  0  0  0  0  0  0  0
   -0.4125    1.7605    0.0000 C   0  0  0  0  0  0  0  0  0  0  0  0
    0.4125    3.1895    0.0000 C   0  0  0  0  0  0  0  0  0  0  0  0
    0.7145    2.0625    0.0000 C   0  0  0  0  0  0  0  0  0  0  0  0
    0.7145    1.2375    0.0000 C   0  0  0  0  0  0  0  0  0  0  0  0
    1.4289    0.8250    0.0000 C   0  0  0  0  0  0  0  0  0  0  0  0
    1.4289   -0.0000    0.0000 C   0  0  0  0  0  0  0  0  0  0  0  0
    0.7145   -0.4125    0.0000 C   0  0  0  0  0  0  0  0  0  0  0  0
    0.0000    0.0000    0.0000 C   0  0  0  0  0  0  0  0  0  0  0  0
    0.0000    0.8250    0.0000 C   0  0  0  0  0  0  0  0  0  0  0  0
  1  2  1  0  0  0  0
  2  3  1  0  0  0  0
  3  4  1  0  0  0  0
  4  5  2  0  0  0  0
  4  6  1  0  0  0  0
  6  7  1  0  0  0  0
  7  8  1  0  0  0  0
  7  9  1  0  0  0  0
  7 10  1  0  0  0  0
 10 11  1  0  0  0  0
 11 12  4  0  0  0  0
 12 13  4  0  0  0  0
 13 14  4  0  0  0  0
 14 15  4  0  0  0  0
 15 16  4  0  0  0  0
 11 16  4  0  0  0  0
M  END
> <activity>
29.9

> <InChiKey>
SHSGYHAHMQLYRB-UHFFFAOYSA-N

$$$$

  Mrv2220 08292413132D          

 15 15  0  0  0  0            999 V2000
    0.0000    3.3000    0.0000 C   0  0  0  0  0  0  0  0  0  0  0  0
    0.0000    2.4750    0.0000 C   0  0  0  0  0  0  0  0  0  0  0  0
    0.7145    2.0625    0.0000 N   0  0  0  0  0  0  0  0  0  0  0  0
    0.7145    1.2375    0.0000 C   0  0  0  0  0  0  0  0  0  0  0  0
    1.4289    0.8250    0.0000 N   0  0  0  0  0  0  0  0  0  0  0  0
    1.4289   -0.0000    0.0000 C   0  0  0  0  0  0  0  0  0  0  0  0
    2.1434   -0.4125    0.0000 N   0  0  0  0  0  0  0  0  0  0  0  0
    2.1434   -1.2375    0.0000 C   0  0  0  0  0  0  0  0  0  0  0  0
    2.8579   -1.6500    0.0000 C   0  0  0  0  0  0  0  0  0  0  0  0
    1.4289   -1.6500    0.0000 C   0  0  0  0  0  0  0  0  0  0  0  0
    0.7145   -0.4125    0.0000 N   0  0  0  0  0  0  0  0  0  0  0  0
    0.0000    0.0000    0.0000 C   0  0  0  0  0  0  0  0  0  0  0  0
   -0.7145   -0.4125    0.0000 S   0  0  0  0  0  0  0  0  0  0  0  0
   -1.4289    0.0000    0.0000 C   0  0  0  0  0  0  0  0  0  0  0  0
    0.0000    0.8250    0.0000 N   0  0  0  0  0  0  0  0  0  0  0  0
  1  2  1  0  0  0  0
  2  3  1  0  0  0  0
  3  4  1  0  0  0  0
  4  5  4  0  0  0  0
  5  6  4  0  0  0  0
  6  7  1  0  0  0  0
  7  8  1  0  0  0  0
  8  9  1  0  0  0  0
  8 10  1  0  0  0  0
  6 11  4  0  0  0  0
 11 12  4  0  0  0  0
 12 13  1  0  0  0  0
 13 14  1  0  0  0  0
 12 15  4  0  0  0  0
  4 15  4  0  0  0  0
M  END
> <activity>
62.1

> <InChiKey>
RQVYBGPQFYCBGX-UHFFFAOYSA-N

$$$$

  Mrv2220 08292413132D          

 31 33  0  0  0  0            999 V2000
    1.5030   -3.4379    0.0000 C   0  0  0  0  0  0  0  0  0  0  0  0
    2.0551   -2.8248    0.0000 C   0  0  0  0  0  0  0  0  0  0  0  0
    1.8001   -2.0402    0.0000 C   0  0  0  0  0  0  0  0  0  0  0  0
    2.3522   -1.4271    0.0000 C   0  0  0  0  0  0  0  0  0  0  0  0
    2.0972   -0.6424    0.0000 C   0  0  0  0  0  0  0  0  0  0  0  0
    1.3126   -0.3875    0.0000 O   0  0  0  0  0  0  0  0  0  0  0  0
    1.3126    0.4375    0.0000 C   0  0  0  0  0  0  0  0  0  0  0  0
    0.6995    0.9895    0.0000 C   0  0  0  0  0  0  0  0  0  0  0  0
    0.8710    1.7965    0.0000 C   0  0  0  0  0  0  0  0  0  0  0  0
    1.6556    2.0514    0.0000 C   0  0  0  0  0  0  0  0  0  0  0  0
    2.2687    1.4994    0.0000 C   0  0  0  0  0  0  0  0  0  0  0  0
    2.0972    0.6924    0.0000 C   0  0  0  0  0  0  0  0  0  0  0  0
    2.5821    0.0250    0.0000 C   0  0  0  0  0  0  0  0  0  0  0  0
    3.4071    0.0250    0.0000 C   0  0  0  0  0  0  0  0  0  0  0  0
    3.8196    0.7395    0.0000 O   0  0  0  0  0  0  0  0  0  0  0  0
    3.8196   -0.6895    0.0000 C   0  0  0  0  0  0  0  0  0  0  0  0
    4.6446   -0.6895    0.0000 C   0  0  0  0  0  0  0  0  0  0  0  0
    5.0571   -1.4039    0.0000 C   0  0  0  0  0  0  0  0  0  0  0  0
    5.8821   -1.4039    0.0000 I   0  0  0  0  0  0  0  0  0  0  0  0
    4.6446   -2.1184    0.0000 C   0  0  0  0  0  0  0  0  0  0  0  0
    5.0571   -2.8329    0.0000 O   0  0  0  0  0  0  0  0  0  0  0  0
    5.8821   -2.8329    0.0000 C   0  0  0  0  0  0  0  0  0  0  0  0
    6.2946   -3.5474    0.0000 C   0  0  0  0  0  0  0  0  0  0  0  0
    7.1196   -3.5474    0.0000 N   0  0  0  0  0  0  0  0  0  0  0  0
    7.5321   -4.2618    0.0000 C   0  0  0  0  0  0  0  0  0  0  0  0
    8.3571   -4.2618    0.0000 C   0  0  0  0  0  0  0  0  0  0  0  0
    7.5321   -2.8329    0.0000 C   0  0  0  0  0  0  0  0  0  0  0  0
    8.3571   -2.8329    0.0000 C   0  0  0  0  0  0  0  0  0  0  0  0
    3.8196   -2.1184    0.0000 C   0  0  0  0  0  0  0  0  0  0  0  0
    3.4071   -2.8329    0.0000 I   0  0  0  0  0  0  0  0  0  0  0  0
    3.4071   -1.4039    0.0000 C   0  0  0  0  0  0  0  0  0  0  0  0
  1  2  1  0  0  0  0
  2  3  1  0  0  0  0
  3  4  1  0  0  0  0
  4  5  1  0  0  0  0
  5  6  4  0  0  0  0
  6  7  4  0  0  0  0
  7  8  4  0  0  0  0
  8  9  4  0  0  0  0
  9 10  4  0  0  0  0
 10 11  4  0  0  0  0
 11 12  4  0  0  0  0
  7 12  4  0  0  0  0
 12 13  4  0  0  0  0
  5 13  4  0  0  0  0
 13 14  1  0  0  0  0
 14 15  2  0  0  0  0
 14 16  1  0  0  0  0
 16 17  4  0  0  0  0
 17 18  4  0  0  0  0
 18 19  1  0  0  0  0
 18 20  4  0  0  0  0
 20 21  1  0  0  0  0
 21 22  1  0  0  0  0
 22 23  1  0  0  0  0
 23 24  1  0  0  0  0
 24 25  1  0  0  0  0
 25 26  1  0  0  0  0
 24 27  1  0  0  0  0
 27 28  1  0  0  0  0
 20 29  4  0  0  0  0
 29 30  1  0  0  0  0
 29 31  4  0  0  0  0
 16 31  4  0  0  0  0
M  END
> <activity>
48.4

> <InChiKey>
IYIKLHRQXLHMJQ-UHFFFAOYSA-N

$$$$

  Mrv2220 08292413132D          

 22 23  0  0  0  0            999 V2000
    3.5724   -2.8875    0.0000 C   0  0  0  0  0  0  0  0  0  0  0  0
    3.5724   -3.7125    0.0000 C   0  0  0  0  0  0  0  0  0  0  0  0
    4.2868   -4.1250    0.0000 C   0  0  0  0  0  0  0  0  0  0  0  0
    4.2868   -4.9500    0.0000 C   0  0  0  0  0  0  0  0  0  0  0  0
    3.5724   -5.3625    0.0000 C   0  0  0  0  0  0  0  0  0  0  0  0
    3.5724   -6.1875    0.0000 N   0  0  0  0  0  0  0  0  0  0  0  0
    2.8579   -6.6000    0.0000 C   0  0  0  0  0  0  0  0  0  0  0  0
    2.8579   -7.4250    0.0000 N   0  0  0  0  0  0  0  0  0  0  0  0
    3.5724   -7.8375    0.0000 C   0  0  0  0  0  0  0  0  0  0  0  0
    2.1434   -7.8375    0.0000 C   0  0  0  0  0  0  0  0  0  0  0  0
    2.1434   -8.6625    0.0000 N   0  0  0  0  0  0  0  0  0  0  0  0
    1.4289   -9.0750    0.0000 C   0  0  0  0  0  0  0  0  0  0  0  0
    1.4289   -9.9000    0.0000 C   0  0  0  0  0  0  0  0  0  0  0  0
    0.7145  -10.3125    0.0000 C   0  0  0  0  0  0  0  0  0  0  0  0
    0.0000   -9.9000    0.0000 C   0  0  0  0  0  0  0  0  0  0  0  0
   -0.7145  -10.3125    0.0000 C   0  0  0  0  0  0  0  0  0  0  0  0
    0.0000   -9.0750    0.0000 C   0  0  0  0  0  0  0  0  0  0  0  0
    0.7145   -8.6625    0.0000 C   0  0  0  0  0  0  0  0  0  0  0  0
    0.7145   -7.8375    0.0000 C   0  0  0  0  0  0  0  0  0  0  0  0
    2.8579   -4.9500    0.0000 C   0  0  0  0  0  0  0  0  0  0  0  0
    2.1434   -5.3625    0.0000 C   0  0  0  0  0  0  0  0  0  0  0  0
    2.8579   -4.1250    0.0000 C   0  0  0  0  0  0  0  0  0  0  0  0
  1  2  1  0  0  0  0
  2  3  4  0  0  0  0
  3  4  4  0  0  0  0
  4  5  4  0  0  0  0
  6  5  1  4  0  0  0
  6  7  2  0  0  0  0
  7  8  1  0  0  0  0
  8  9  1  0  0  0  0
 10  8  1  4  0  0  0
 10 11  2  0  0  0  0
 11 12  1  0  0  0  0
 12 13  4  0  0  0  0
 13 14  4  0  0  0  0
 14 15  4  0  0  0  0
 15 16  1  0  0  0  0
 15 17  4  0  0  0  0
 17 18  4  0  0  0  0
 12 18  4  0  0  0  0
 18 19  1  0  0  0  0
  5 20  4  0  0  0  0
 20 21  1  0  0  0  0
 20 22  4  0  0  0  0
  2 22  4  0  0  0  0
M  END
> <activity>
54.1

> <InChiKey>
QXAITBQSYVNQDR-UHFFFAOYSA-N

$$$$

  Mrv2220 08292413132D          

  4  3  0  0  0  0            999 V2000
    1.2375    0.7145    0.0000 N   0  0  0  0  0  0  0  0  0  0  0  0
    0.8250    0.0000    0.0000 C   0  0  0  0  0  0  0  0  0  0  0  0
    1.2375   -0.7145    0.0000 O   0  0  0  0  0  0  0  0  0  0  0  0
    0.0000    0.0000    0.0000 O   0  0  0  0  0  0  0  0  0  0  0  0
  1  2  1  0  0  0  0
  2  3  2  0  0  0  0
  2  4  1  0  0  0  0
M  END
> <activity>
14.7

> <InChiKey>
KXDHJXZQYSOELW-UHFFFAOYSA-N

$$$$

  Mrv2220 08292413132D          

  3  2  0  0  0  0            999 V2000
    1.6500   -0.0000    0.0000 N   0  0  0  0  0  0  0  0  0  0  0  0
    2.4750   -0.0000    0.0000 C   0  0  0  0  0  0  0  0  0  0  0  0
    3.3000    0.0000    0.0000 S   0  0  0  0  0  0  0  0  0  0  0  0
  1  2  3  0  0  0  0
  2  3  1  0  0  0  0
M  END
> <activity>
11.8

> <InChiKey>
ZMZDMBWJUHKJPS-UHFFFAOYSA-N

$$$$

  Mrv2220 08292413132D          

 22 23  0  0  0  0            999 V2000
   -2.9684    6.7661    0.0000 C   0  0  0  0  0  0  0  0  0  0  0  0
   -2.1434    6.7661    0.0000 C   0  0  0  0  0  0  0  0  0  0  0  0
   -1.3184    6.7661    0.0000 C   0  0  0  0  0  0  0  0  0  0  0  0
   -2.1434    7.5911    0.0000 C   0  0  0  0  0  0  0  0  0  0  0  0
   -2.1434    8.4161    0.0000 N   0  0  0  0  0  0  0  0  0  0  0  0
   -2.1434    5.9411    0.0000 C   0  0  0  0  0  0  0  0  0  0  0  0
   -1.4289    5.5286    0.0000 C   0  0  0  0  0  0  0  0  0  0  0  0
   -1.4289    4.7036    0.0000 C   0  0  0  0  0  0  0  0  0  0  0  0
   -0.7145    4.2911    0.0000 C   0  0  0  0  0  0  0  0  0  0  0  0
   -0.7145    3.4661    0.0000 N   0  0  0  0  0  0  0  0  0  0  0  0
   -0.0470    2.9812    0.0000 C   0  0  0  0  0  0  0  0  0  0  0  0
   -0.3020    2.1965    0.0000 N   0  0  0  0  0  0  0  0  0  0  0  0
   -1.1270    2.1965    0.0000 C   0  0  0  0  0  0  0  0  0  0  0  0
   -1.3819    2.9812    0.0000 N   0  0  0  0  0  0  0  0  0  0  0  0
   -2.1434    4.2911    0.0000 C   0  0  0  0  0  0  0  0  0  0  0  0
   -2.8579    4.7036    0.0000 C   0  0  0  0  0  0  0  0  0  0  0  0
   -3.5724    4.2911    0.0000 C   0  0  0  0  0  0  0  0  0  0  0  0
   -3.9849    5.0055    0.0000 C   0  0  0  0  0  0  0  0  0  0  0  0
   -3.1599    3.5766    0.0000 C   0  0  0  0  0  0  0  0  0  0  0  0
   -4.2868    3.8786    0.0000 C   0  0  0  0  0  0  0  0  0  0  0  0
   -5.0013    3.4661    0.0000 N   0  0  0  0  0  0  0  0  0  0  0  0
   -2.8579    5.5286    0.0000 C   0  0  0  0  0  0  0  0  0  0  0  0
  1  2  1  0  0  0  0
  2  3  1  0  0  0  0
  2  4  1  0  0  0  0
  4  5  3  0  0  0  0
  2  6  1  0  0  0  0
  6  7  4  0  0  0  0
  7  8  4  0  0  0  0
  8  9  1  0  0  0  0
  9 10  1  0  0  0  0
 10 11  4  0  0  0  0
 11 12  4  0  0  0  0
 12 13  4  0  0  0  0
 13 14  4  0  0  0  0
 10 14  4  0  0  0  0
  8 15  4  0  0  0  0
 15 16  4  0  0  0  0
 16 17  1  0  0  0  0
 17 18  1  0  0  0  0
 17 19  1  0  0  0  0
 17 20  1  0  0  0  0
 20 21  3  0  0  0  0
 16 22  4  0  0  0  0
  6 22  4  0  0  0  0
M  END
> <activity>
9.5

> <InChiKey>
YBBLVLTVTVSKRW-UHFFFAOYSA-N

$$$$

  Mrv2220 08292413132D          

 70 69  0  0  0  0            999 V2000
   19.5710   20.3743    0.0000 C   0  0  0  0  0  0  0  0  0  0  0  0
   19.5710   19.5493    0.0000 C   0  0  0  0  0  0  0  0  0  0  0  0
   20.2855   19.1368    0.0000 C   0  0  0  0  0  0  0  0  0  0  0  0
   20.2855   18.3118    0.0000 C   0  0  0  0  0  0  0  0  0  0  0  0
   19.5710   17.8993    0.0000 C   0  0  0  0  0  0  0  0  0  0  0  0
   18.8565   18.3118    0.0000 C   0  0  0  0  0  0  0  0  0  0  0  0
   18.1421   17.8993    0.0000 C   0  0  0  0  0  0  0  0  0  0  0  0
   18.1421   17.0743    0.0000 O   0  0  0  0  0  0  0  0  0  0  0  0
   17.4276   18.3118    0.0000 C   0  0  0  0  0  0  0  0  0  0  0  0
   16.7131   17.8993    0.0000 C   0  0  0  0  0  0  0  0  0  0  0  0
   15.9987   18.3118    0.0000 C   0  0  0  0  0  0  0  0  0  0  0  0
   15.2842   17.8993    0.0000 C   0  0  0  0  0  0  0  0  0  0  0  0
   15.2842   17.0743    0.0000 C   0  0  0  0  0  0  0  0  0  0  0  0
   14.5697   16.6618    0.0000 C   0  0  0  0  0  0  0  0  0  0  0  0
   14.5697   15.8368    0.0000 C   0  0  0  0  0  0  0  0  0  0  0  0
   13.8552   15.4243    0.0000 C   0  0  0  0  0  0  0  0  0  0  0  0
   13.8552   14.5993    0.0000 C   0  0  0  0  0  0  0  0  0  0  0  0
   13.1408   14.1868    0.0000 C   0  0  0  0  0  0  0  0  0  0  0  0
   13.1408   13.3618    0.0000 C   0  0  0  0  0  0  0  0  0  0  0  0
   13.8552   12.9493    0.0000 O   0  0  0  0  0  0  0  0  0  0  0  0
   12.4263   12.9493    0.0000 O   0  0  0  0  0  0  0  0  0  0  0  0
   12.4263   12.1243    0.0000 C   0  0  0  0  0  0  0  0  0  0  0  0
   11.7118   11.7118    0.0000 C   0  0  0  0  0  0  0  0  0  0  0  0
   11.7118   10.8868    0.0000 N   0  0  0  0  0  0  0  0  0  0  0  0
   10.9974   10.4743    0.0000 C   0  0  0  0  0  0  0  0  0  0  0  0
   10.9974    9.6493    0.0000 C   0  0  0  0  0  0  0  0  0  0  0  0
   10.2829    9.2368    0.0000 O   0  0  0  0  0  0  0  0  0  0  0  0
   10.2829    8.4118    0.0000 C   0  0  0  0  0  0  0  0  0  0  0  0
   10.9974    7.9993    0.0000 O   0  0  0  0  0  0  0  0  0  0  0  0
    9.5684    7.9993    0.0000 C   0  0  0  0  0  0  0  0  0  0  0  0
    9.5684    7.1743    0.0000 C   0  0  0  0  0  0  0  0  0  0  0  0
    8.8539    6.7618    0.0000 C   0  0  0  0  0  0  0  0  0  0  0  0
    8.8539    5.9368    0.0000 C   0  0  0  0  0  0  0  0  0  0  0  0
    8.1395    5.5243    0.0000 C   0  0  0  0  0  0  0  0  0  0  0  0
    8.1395    4.6993    0.0000 C   0  0  0  0  0  0  0  0  0  0  0  0
    7.4250    4.2868    0.0000 C   0  0  0  0  0  0  0  0  0  0  0  0
    7.4250    3.4618    0.0000 C   0  0  0  0  0  0  0  0  0  0  0  0
    6.7105    3.0493    0.0000 C   0  0  0  0  0  0  0  0  0  0  0  0
    6.7105    2.2243    0.0000 C   0  0  0  0  0  0  0  0  0  0  0  0
    5.9961    1.8118    0.0000 C   0  0  0  0  0  0  0  0  0  0  0  0
    5.9961    0.9868    0.0000 O   0  0  0  0  0  0  0  0  0  0  0  0
    5.2816    2.2243    0.0000 C   0  0  0  0  0  0  0  0  0  0  0  0
    4.5671    1.8118    0.0000 C   0  0  0  0  0  0  0  0  0  0  0  0
    3.8526    2.2243    0.0000 C   0  0  0  0  0  0  0  0  0  0  0  0
    3.1382    1.8118    0.0000 C   0  0  0  0  0  0  0  0  0  0  0  0
    2.4237    2.2243    0.0000 C   0  0  0  0  0  0  0  0  0  0  0  0
    1.7092    1.8118    0.0000 C   0  0  0  0  0  0  0  0  0  0  0  0
   12.4263   10.4743    0.0000 C   0  0  0  0  0  0  0  0  0  0  0  0
   12.4263    9.6493    0.0000 C   0  0  0  0  0  0  0  0  0  0  0  0
   13.1408    9.2368    0.0000 O   0  0  0  0  0  0  0  0  0  0  0  0
   13.1408    8.4118    0.0000 C   0  0  0  0  0  0  0  0  0  0  0  0
   12.4263    7.9993    0.0000 O   0  0  0  0  0  0  0  0  0  0  0  0
   13.8552    7.9993    0.0000 C   0  0  0  0  0  0  0  0  0  0  0  0
   13.8552    7.1743    0.0000 C   0  0  0  0  0  0  0  0  0  0  0  0
   14.5697    6.7618    0.0000 C   0  0  0  0  0  0  0  0  0  0  0  0
   14.5697    5.9368    0.0000 C   0  0  0  0  0  0  0  0  0  0  0  0
   15.2842    5.5243    0.0000 C   0  0  0  0  0  0  0  0  0  0  0  0
   15.2842    4.6993    0.0000 C   0  0  0  0  0  0  0  0  0  0  0  0
   15.9987    4.2868    0.0000 C   0  0  0  0  0  0  0  0  0  0  0  0
   15.9987    3.4618    0.0000 C   0  0  0  0  0  0  0  0  0  0  0  0
   16.7131    3.0493    0.0000 C   0  0  0  0  0  0  0  0  0  0  0  0
   16.7131    2.2243    0.0000 C   0  0  0  0  0  0  0  0  0  0  0  0
   15.9987    1.8118    0.0000 C   0  0  0  0  0  0  0  0  0  0  0  0
   15.2842    2.2243    0.0000 O   0  0  0  0  0  0  0  0  0  0  0  0
   15.9987    0.9868    0.0000 C   0  0  0  0  0  0  0  0  0  0  0  0
   15.2842    0.5743    0.0000 C   0  0  0  0  0  0  0  0  0  0  0  0
   15.2842   -0.2507    0.0000 C   0  0  0  0  0  0  0  0  0  0  0  0
   14.5697   -0.6632    0.0000 C   0  0  0  0  0  0  0  0  0  0  0  0
   14.5697   -1.4882    0.0000 C   0  0  0  0  0  0  0  0  0  0  0  0
   13.8552   -1.9007    0.0000 C   0  0  0  0  0  0  0  0  0  0  0  0
  1  2  1  0  0  0  0
  2  3  1  0  0  0  0
  3  4  1  0  0  0  0
  4  5  1  0  0  0  0
  5  6  1  0  0  0  0
  6  7  1  0  0  0  0
  7  8  1  0  0  0  0
  7  9  1  0  0  0  0
 10  9  1  4  0  0  0
 10 11  2  0  0  0  0
 11 12  1  0  0  0  0
 12 13  1  0  0  0  0
 13 14  1  0  0  0  0
 14 15  1  0  0  0  0
 15 16  1  0  0  0  0
 16 17  1  0  0  0  0
 17 18  1  0  0  0  0
 18 19  1  0  0  0  0
 19 20  2  0  0  0  0
 19 21  1  0  0  0  0
 21 22  1  0  0  0  0
 22 23  1  0  0  0  0
 23 24  1  0  0  0  0
 24 25  1  0  0  0  0
 25 26  1  0  0  0  0
 26 27  1  0  0  0  0
 27 28  1  0  0  0  0
 28 29  2  0  0  0  0
 28 30  1  0  0  0  0
 30 31  1  0  0  0  0
 31 32  1  0  0  0  0
 32 33  1  0  0  0  0
 33 34  1  0  0  0  0
 34 35  1  0  0  0  0
 35 36  1  0  0  0  0
 37 36  1  4  0  0  0
 37 38  2  0  0  0  0
 38 39  1  0  0  0  0
 39 40  1  0  0  0  0
 40 41  1  0  0  0  0
 40 42  1  0  0  0  0
 42 43  1  0  0  0  0
 43 44  1  0  0  0  0
 44 45  1  0  0  0  0
 45 46  1  0  0  0  0
 46 47  1  0  0  0  0
 24 48  1  0  0  0  0
 48 49  1  0  0  0  0
 49 50  1  0  0  0  0
 50 51  1  0  0  0  0
 51 52  2  0  0  0  0
 51 53  1  0  0  0  0
 53 54  1  0  0  0  0
 54 55  1  0  0  0  0
 55 56  1  0  0  0  0
 56 57  1  0  0  0  0
 57 58  1  0  0  0  0
 58 59  1  0  0  0  0
 60 59  1  4  0  0  0
 60 61  2  0  0  0  0
 61 62  1  0  0  0  0
 62 63  1  0  0  0  0
 63 64  1  0  0  0  0
 63 65  1  0  0  0  0
 65 66  1  0  0  0  0
 66 67  1  0  0  0  0
 67 68  1  0  0  0  0
 68 69  1  0  0  0  0
 69 70  1  0  0  0  0
M  END
> <activity>
60.8

> <InChiKey>
JOLSSKSFGRJXSN-UHFFFAOYSA-N

$$$$

  Mrv2220 08292413132D          

 20 22  0  0  0  0            999 V2000
    1.4289   -2.4750    0.0000 O   0  0  0  0  0  0  0  0  0  0  0  0
    1.4289   -1.6500    0.0000 C   0  0  0  0  0  0  0  0  0  0  0  0
    0.7145   -1.2375    0.0000 C   0  0  0  0  0  0  0  0  0  0  0  0
    0.7145   -0.4125    0.0000 C   0  0  0  0  0  0  0  0  0  0  0  0
    0.0000    0.0000    0.0000 C   0  0  0  0  0  0  0  0  0  0  0  0
   -0.7145   -0.4125    0.0000 C   0  0  0  0  0  0  0  0  0  0  0  0
   -1.4289    0.0000    0.0000 C   0  0  0  0  0  0  0  0  0  0  0  0
   -1.4289    0.8250    0.0000 C   0  0  0  0  0  0  0  0  0  0  0  0
   -2.1434    1.2375    0.0000 O   0  0  0  0  0  0  0  0  0  0  0  0
   -0.7145    1.2375    0.0000 C   0  0  0  0  0  0  0  0  0  0  0  0
    0.0000    0.8250    0.0000 C   0  0  0  0  0  0  0  0  0  0  0  0
    1.4289    0.0000    0.0000 O   0  0  0  0  0  0  0  0  0  0  0  0
    2.1434   -0.4125    0.0000 C   0  0  0  0  0  0  0  0  0  0  0  0
    2.8579    0.0000    0.0000 C   0  0  0  0  0  0  0  0  0  0  0  0
    3.5724   -0.4125    0.0000 C   0  0  0  0  0  0  0  0  0  0  0  0
    4.2868   -0.0000    0.0000 O   0  0  0  0  0  0  0  0  0  0  0  0
    3.5724   -1.2375    0.0000 C   0  0  0  0  0  0  0  0  0  0  0  0
    2.8579   -1.6500    0.0000 C   0  0  0  0  0  0  0  0  0  0  0  0
    2.8579   -2.4750    0.0000 O   0  0  0  0  0  0  0  0  0  0  0  0
    2.1434   -1.2375    0.0000 C   0  0  0  0  0  0  0  0  0  0  0  0
  1  2  2  0  0  0  0
  2  3  4  0  0  0  0
  3  4  4  0  0  0  0
  4  5  1  0  0  0  0
  5  6  4  0  0  0  0
  6  7  4  0  0  0  0
  7  8  4  0  0  0  0
  8  9  1  0  0  0  0
  8 10  4  0  0  0  0
 10 11  4  0  0  0  0
  5 11  4  0  0  0  0
  4 12  4  0  0  0  0
 12 13  4  0  0  0  0
 13 14  4  0  0  0  0
 14 15  4  0  0  0  0
 15 16  1  0  0  0  0
 15 17  4  0  0  0  0
 17 18  4  0  0  0  0
 18 19  1  0  0  0  0
 18 20  4  0  0  0  0
  2 20  4  0  0  0  0
 13 20  4  0  0  0  0
M  END
> <activity>
103.0

> <InChiKey>
KZNIFHPLKGYRTM-UHFFFAOYSA-N

$$$$

  Mrv2220 08292413132D          

 13 13  0  0  0  0            999 V2000
    1.4289    3.3000    0.0000 C   0  0  0  0  0  0  0  0  0  0  0  0
    1.4289    2.4750    0.0000 C   0  0  0  0  0  0  0  0  0  0  0  0
    2.1434    2.0625    0.0000 O   0  0  0  0  0  0  0  0  0  0  0  0
    0.7145    2.0625    0.0000 O   0  0  0  0  0  0  0  0  0  0  0  0
    0.7145    1.2375    0.0000 C   0  0  0  0  0  0  0  0  0  0  0  0
    1.4289    0.8250    0.0000 C   0  0  0  0  0  0  0  0  0  0  0  0
    1.4289   -0.0000    0.0000 C   0  0  0  0  0  0  0  0  0  0  0  0
    0.7145   -0.4125    0.0000 C   0  0  0  0  0  0  0  0  0  0  0  0
    0.0000    0.0000    0.0000 C   0  0  0  0  0  0  0  0  0  0  0  0
    0.0000    0.8250    0.0000 C   0  0  0  0  0  0  0  0  0  0  0  0
   -0.7145    1.2375    0.0000 C   0  0  0  0  0  0  0  0  0  0  0  0
   -0.7145    2.0625    0.0000 O   0  0  0  0  0  0  0  0  0  0  0  0
   -1.4289    0.8250    0.0000 O   0  0  0  0  0  0  0  0  0  0  0  0
  1  2  1  0  0  0  0
  2  3  2  0  0  0  0
  2  4  1  0  0  0  0
  4  5  1  0  0  0  0
  5  6  4  0  0  0  0
  6  7  4  0  0  0  0
  7  8  4  0  0  0  0
  8  9  4  0  0  0  0
  9 10  4  0  0  0  0
  5 10  4  0  0  0  0
 10 11  1  0  0  0  0
 11 12  2  0  0  0  0
 11 13  1  0  0  0  0
M  END
> <activity>
36.6

> <InChiKey>
BSYNRYMUTXBXSQ-UHFFFAOYSA-N

$$$$

  Mrv2220 08292413132D          

 15 15  0  0  0  0            999 V2000
   -0.7145    4.5375    0.0000 C   0  0  0  0  0  0  0  0  0  0  0  0
    0.0000    4.1250    0.0000 O   0  0  0  0  0  0  0  0  0  0  0  0
    0.0000    3.3000    0.0000 C   0  0  0  0  0  0  0  0  0  0  0  0
   -0.7145    2.8875    0.0000 O   0  0  0  0  0  0  0  0  0  0  0  0
    0.7145    2.8875    0.0000 N   0  0  0  0  0  0  0  0  0  0  0  0
    0.7145    2.0625    0.0000 S   0  0  0  0  0  0  0  0  0  0  0  0
   -0.1105    2.0625    0.0000 O   0  0  0  0  0  0  0  0  0  0  0  0
    1.5395    2.0625    0.0000 O   0  0  0  0  0  0  0  0  0  0  0  0
    0.7145    1.2375    0.0000 C   0  0  0  0  0  0  0  0  0  0  0  0
    1.4289    0.8250    0.0000 C   0  0  0  0  0  0  0  0  0  0  0  0
    1.4289   -0.0000    0.0000 C   0  0  0  0  0  0  0  0  0  0  0  0
    0.7145   -0.4125    0.0000 C   0  0  0  0  0  0  0  0  0  0  0  0
    0.7145   -1.2375    0.0000 N   0  0  0  0  0  0  0  0  0  0  0  0
    0.0000    0.0000    0.0000 C   0  0  0  0  0  0  0  0  0  0  0  0
    0.0000    0.8250    0.0000 C   0  0  0  0  0  0  0  0  0  0  0  0
  1  2  1  0  0  0  0
  2  3  1  0  0  0  0
  3  4  2  0  0  0  0
  3  5  1  0  0  0  0
  5  6  1  0  0  0  0
  6  7  2  0  0  0  0
  6  8  2  0  0  0  0
  6  9  1  0  0  0  0
  9 10  4  0  0  0  0
 10 11  4  0  0  0  0
 11 12  4  0  0  0  0
 12 13  1  0  0  0  0
 12 14  4  0  0  0  0
 14 15  4  0  0  0  0
  9 15  4  0  0  0  0
M  END
> <activity>
5.4

> <InChiKey>
VGPYEHKOIGNJKV-UHFFFAOYSA-N

$$$$

  Mrv2220 08292413132D          

 19 19  0  0  0  0            999 V2000
    0.7145   -3.7125    0.0000 C   0  0  0  0  0  0  0  0  0  0  0  0
    1.4289   -4.1250    0.0000 C   0  0  0  0  0  0  0  0  0  0  0  0
    1.4289   -4.9500    0.0000 C   0  0  0  0  0  0  0  0  0  0  0  0
    2.1434   -3.7125    0.0000 N   0  0  0  0  0  0  0  0  0  0  0  0
    2.8579   -4.1250    0.0000 C   0  0  0  0  0  0  0  0  0  0  0  0
    3.5724   -3.7125    0.0000 C   0  0  0  0  0  0  0  0  0  0  0  0
    3.5724   -2.8875    0.0000 O   0  0  0  0  0  0  0  0  0  0  0  0
    4.2868   -4.1250    0.0000 C   0  0  0  0  0  0  0  0  0  0  0  0
    5.0013   -3.7125    0.0000 O   0  0  0  0  0  0  0  0  0  0  0  0
    5.7158   -4.1250    0.0000 C   0  0  0  0  0  0  0  0  0  0  0  0
    6.4302   -3.7125    0.0000 C   0  0  0  0  0  0  0  0  0  0  0  0
    7.1447   -4.1250    0.0000 C   0  0  0  0  0  0  0  0  0  0  0  0
    7.1447   -4.9500    0.0000 C   0  0  0  0  0  0  0  0  0  0  0  0
    7.8592   -5.3625    0.0000 C   0  0  0  0  0  0  0  0  0  0  0  0
    7.8592   -6.1875    0.0000 C   0  0  0  0  0  0  0  0  0  0  0  0
    8.5737   -6.6000    0.0000 N   0  0  0  0  0  0  0  0  0  0  0  0
    7.1447   -6.6000    0.0000 O   0  0  0  0  0  0  0  0  0  0  0  0
    6.4302   -5.3625    0.0000 C   0  0  0  0  0  0  0  0  0  0  0  0
    5.7158   -4.9500    0.0000 C   0  0  0  0  0  0  0  0  0  0  0  0
  1  2  1  0  0  0  0
  2  3  1  0  0  0  0
  2  4  1  0  0  0  0
  4  5  1  0  0  0  0
  5  6  1  0  0  0  0
  6  7  1  0  0  0  0
  6  8  1  0  0  0  0
  8  9  1  0  0  0  0
  9 10  1  0  0  0  0
 10 11  4  0  0  0  0
 11 12  4  0  0  0  0
 12 13  4  0  0  0  0
 13 14  1  0  0  0  0
 14 15  1  0  0  0  0
 15 16  1  0  0  0  0
 15 17  2  0  0  0  0
 13 18  4  0  0  0  0
 18 19  4  0  0  0  0
 10 19  4  0  0  0  0
M  END
> <activity>
15.4

> <InChiKey>
METKIMKYRPQLGS-UHFFFAOYSA-N

$$$$

  Mrv2220 08292413132D          

 41 44  0  0  0  0            999 V2000
    1.1400   -2.7495    0.0000 C   0  0  0  0  0  0  0  0  0  0  0  0
    0.5269   -2.1975    0.0000 C   0  0  0  0  0  0  0  0  0  0  0  0
   -0.2578   -2.4525    0.0000 C   0  0  0  0  0  0  0  0  0  0  0  0
    0.6984   -1.3905    0.0000 C   0  0  0  0  0  0  0  0  0  0  0  0
    0.1464   -0.7774    0.0000 C   0  0  0  0  0  0  0  0  0  0  0  0
   -0.6741   -0.8637    0.0000 C   0  0  0  0  0  0  0  0  0  0  0  0
   -1.0097   -1.6174    0.0000 O   0  0  0  0  0  0  0  0  0  0  0  0
   -1.1591   -0.1962    0.0000 N   0  0  0  0  0  0  0  0  0  0  0  0
   -1.9795   -0.2825    0.0000 C   0  0  0  0  0  0  0  0  0  0  0  0
   -2.3151   -1.0362    0.0000 C   0  0  0  0  0  0  0  0  0  0  0  0
   -3.1356   -1.1224    0.0000 C   0  0  0  0  0  0  0  0  0  0  0  0
   -3.6205   -0.4550    0.0000 C   0  0  0  0  0  0  0  0  0  0  0  0
   -3.2849    0.2987    0.0000 C   0  0  0  0  0  0  0  0  0  0  0  0
   -2.4645    0.3850    0.0000 C   0  0  0  0  0  0  0  0  0  0  0  0
    0.5589   -0.0630    0.0000 C   0  0  0  0  0  0  0  0  0  0  0  0
    0.2233    0.6907    0.0000 C   0  0  0  0  0  0  0  0  0  0  0  0
   -0.5972    0.7769    0.0000 C   0  0  0  0  0  0  0  0  0  0  0  0
   -0.9327    1.5306    0.0000 C   0  0  0  0  0  0  0  0  0  0  0  0
   -0.4478    2.1980    0.0000 C   0  0  0  0  0  0  0  0  0  0  0  0
    0.3727    2.1118    0.0000 C   0  0  0  0  0  0  0  0  0  0  0  0
    0.7082    1.3581    0.0000 C   0  0  0  0  0  0  0  0  0  0  0  0
    1.3658   -0.2345    0.0000 C   0  0  0  0  0  0  0  0  0  0  0  0
    1.9789    0.3175    0.0000 C   0  0  0  0  0  0  0  0  0  0  0  0
    1.8074    1.1245    0.0000 C   0  0  0  0  0  0  0  0  0  0  0  0
    2.4205    1.6765    0.0000 C   0  0  0  0  0  0  0  0  0  0  0  0
    3.2051    1.4216    0.0000 C   0  0  0  0  0  0  0  0  0  0  0  0
    3.8182    1.9736    0.0000 F   0  0  0  0  0  0  0  0  0  0  0  0
    3.3766    0.6146    0.0000 C   0  0  0  0  0  0  0  0  0  0  0  0
    2.7635    0.0626    0.0000 C   0  0  0  0  0  0  0  0  0  0  0  0
    1.4521   -1.0550    0.0000 N   0  0  0  0  0  0  0  0  0  0  0  0
    2.1665   -1.4675    0.0000 C   0  0  0  0  0  0  0  0  0  0  0  0
    2.8810   -1.0550    0.0000 C   0  0  0  0  0  0  0  0  0  0  0  0
    3.5955   -1.4675    0.0000 C   0  0  0  0  0  0  0  0  0  0  0  0
    3.5955   -2.2925    0.0000 O   0  0  0  0  0  0  0  0  0  0  0  0
    4.3099   -1.0550    0.0000 C   0  0  0  0  0  0  0  0  0  0  0  0
    5.0244   -1.4675    0.0000 C   0  0  0  0  0  0  0  0  0  0  0  0
    5.0244   -2.2925    0.0000 O   0  0  0  0  0  0  0  0  0  0  0  0
    5.7389   -1.0550    0.0000 C   0  0  0  0  0  0  0  0  0  0  0  0
    6.4534   -1.4675    0.0000 C   0  0  0  0  0  0  0  0  0  0  0  0
    7.1678   -1.0550    0.0000 O   0  0  0  0  0  0  0  0  0  0  0  0
    6.4534   -2.2925    0.0000 O   0  0  0  0  0  0  0  0  0  0  0  0
  1  2  1  0  0  0  0
  2  3  1  0  0  0  0
  2  4  1  0  0  0  0
  4  5  4  0  0  0  0
  5  6  1  0  0  0  0
  6  7  2  0  0  0  0
  6  8  1  0  0  0  0
  8  9  1  0  0  0  0
  9 10  4  0  0  0  0
 10 11  4  0  0  0  0
 11 12  4  0  0  0  0
 12 13  4  0  0  0  0
 13 14  4  0  0  0  0
  9 14  4  0  0  0  0
  5 15  4  0  0  0  0
 15 16  1  0  0  0  0
 16 17  4  0  0  0  0
 17 18  4  0  0  0  0
 18 19  4  0  0  0  0
 19 20  4  0  0  0  0
 20 21  4  0  0  0  0
 16 21  4  0  0  0  0
 15 22  4  0  0  0  0
 22 23  1  0  0  0  0
 23 24  4  0  0  0  0
 24 25  4  0  0  0  0
 25 26  4  0  0  0  0
 26 27  1  0  0  0  0
 26 28  4  0  0  0  0
 28 29  4  0  0  0  0
 23 29  4  0  0  0  0
 22 30  4  0  0  0  0
  4 30  4  0  0  0  0
 30 31  1  0  0  0  0
 31 32  1  0  0  0  0
 32 33  1  0  0  0  0
 33 34  1  0  0  0  0
 33 35  1  0  0  0  0
 35 36  1  0  0  0  0
 36 37  1  0  0  0  0
 36 38  1  0  0  0  0
 38 39  1  0  0  0  0
 39 40  2  0  0  0  0
 39 41  1  0  0  0  0
M  END
> <activity>
63.0

> <InChiKey>
XUKUURHRXDUEBC-UHFFFAOYSA-N

$$$$

  Mrv2220 08292413132D          

 14 14  0  0  0  0            999 V2000
    1.4289    3.3000    0.0000 C   0  0  0  0  0  0  0  0  0  0  0  0
    1.4289    2.4750    0.0000 C   0  0  0  0  0  0  0  0  0  0  0  0
    0.7145    2.0625    0.0000 N   0  0  0  0  0  0  0  0  0  0  0  0
    0.7145    1.2375    0.0000 C   0  0  0  0  0  0  0  0  0  0  0  0
    1.4289    0.8250    0.0000 N   0  0  0  0  0  0  0  0  0  0  0  0
    1.4289   -0.0000    0.0000 C   0  0  0  0  0  0  0  0  0  0  0  0
    2.1434   -0.4125    0.0000 Cl  0  0  0  0  0  0  0  0  0  0  0  0
    0.7145   -0.4125    0.0000 N   0  0  0  0  0  0  0  0  0  0  0  0
    0.0000    0.0000    0.0000 C   0  0  0  0  0  0  0  0  0  0  0  0
   -0.7145   -0.4125    0.0000 N   0  0  0  0  0  0  0  0  0  0  0  0
   -1.4289    0.0000    0.0000 C   0  0  0  0  0  0  0  0  0  0  0  0
   -2.1434   -0.4125    0.0000 C   0  0  0  0  0  0  0  0  0  0  0  0
   -1.4289    0.8250    0.0000 C   0  0  0  0  0  0  0  0  0  0  0  0
    0.0000    0.8250    0.0000 N   0  0  0  0  0  0  0  0  0  0  0  0
  1  2  1  0  0  0  0
  2  3  1  0  0  0  0
  3  4  1  0  0  0  0
  4  5  4  0  0  0  0
  5  6  4  0  0  0  0
  6  7  1  0  0  0  0
  6  8  4  0  0  0  0
  8  9  4  0  0  0  0
  9 10  1  0  0  0  0
 10 11  1  0  0  0  0
 11 12  1  0  0  0  0
 11 13  1  0  0  0  0
  9 14  4  0  0  0  0
  4 14  4  0  0  0  0
M  END
> <activity>
6.9

> <InChiKey>
MXWJVTOOROXGIU-UHFFFAOYSA-N

$$$$

  Mrv2220 08292413132D          

 36 41  0  0  0  0            999 V2000
    4.0668    3.1729    0.0000 O   0  0  0  0  0  0  0  0  0  0  0  0
    4.0668    2.3479    0.0000 C   0  0  0  0  0  0  0  0  0  0  0  0
    4.7812    1.9354    0.0000 O   0  0  0  0  0  0  0  0  0  0  0  0
    3.3523    1.9354    0.0000 C   0  0  0  0  0  0  0  0  0  0  0  0
    3.3523    1.1104    0.0000 C   0  0  0  0  0  0  0  0  0  0  0  0
    2.6378    0.6979    0.0000 C   0  0  0  0  0  0  0  0  0  0  0  0
    1.9233    1.1104    0.0000 C   0  0  0  0  0  0  0  0  0  0  0  0
    1.9233    1.9354    0.0000 C   0  0  0  0  0  0  0  0  0  0  0  0
    2.6378    2.3479    0.0000 C   0  0  0  0  0  0  0  0  0  0  0  0
    1.1387    2.1904    0.0000 N   0  0  0  0  0  0  0  0  0  0  0  0
    0.6538    1.5229    0.0000 C   0  0  0  0  0  0  0  0  0  0  0  0
   -0.1712    1.5229    0.0000 C   0  0  0  0  0  0  0  0  0  0  0  0
   -0.5837    2.2374    0.0000 O   0  0  0  0  0  0  0  0  0  0  0  0
   -0.5837    0.8085    0.0000 N   0  0  0  0  0  0  0  0  0  0  0  0
   -1.4087    0.8085    0.0000 C   0  0  0  0  0  0  0  0  0  0  0  0
   -1.8212    0.0940    0.0000 C   0  0  0  0  0  0  0  0  0  0  0  0
   -2.6462    0.0940    0.0000 C   0  0  0  0  0  0  0  0  0  0  0  0
   -3.0587    0.8085    0.0000 N   0  0  0  0  0  0  0  0  0  0  0  0
   -3.8837    0.8085    0.0000 C   0  0  0  0  0  0  0  0  0  0  0  0
   -4.5982    0.3960    0.0000 C   0  0  0  0  0  0  0  0  0  0  0  0
   -4.5982    1.2210    0.0000 C   0  0  0  0  0  0  0  0  0  0  0  0
   -2.6462    1.5229    0.0000 C   0  0  0  0  0  0  0  0  0  0  0  0
   -1.8212    1.5229    0.0000 C   0  0  0  0  0  0  0  0  0  0  0  0
    1.1387    0.8555    0.0000 N   0  0  0  0  0  0  0  0  0  0  0  0
    0.8838    0.0709    0.0000 C   0  0  0  0  0  0  0  0  0  0  0  0
    1.4358   -0.5422    0.0000 C   0  0  0  0  0  0  0  0  0  0  0  0
    2.2563   -0.4560    0.0000 C   0  0  0  0  0  0  0  0  0  0  0  0
    2.5919   -1.2097    0.0000 C   0  0  0  0  0  0  0  0  0  0  0  0
    3.3988   -1.3812    0.0000 C   0  0  0  0  0  0  0  0  0  0  0  0
    4.0119   -0.8291    0.0000 C   0  0  0  0  0  0  0  0  0  0  0  0
    4.7264   -1.2416    0.0000 C   0  0  0  0  0  0  0  0  0  0  0  0
    4.5549   -2.0486    0.0000 C   0  0  0  0  0  0  0  0  0  0  0  0
    5.1069   -2.6617    0.0000 Cl  0  0  0  0  0  0  0  0  0  0  0  0
    3.7344   -2.1349    0.0000 S   0  0  0  0  0  0  0  0  0  0  0  0
    1.9788   -1.7617    0.0000 O   0  0  0  0  0  0  0  0  0  0  0  0
    1.2643   -1.3492    0.0000 N   0  0  0  0  0  0  0  0  0  0  0  0
  1  2  2  0  0  0  0
  2  3  1  0  0  0  0
  2  4  1  0  0  0  0
  4  5  4  0  0  0  0
  5  6  4  0  0  0  0
  6  7  4  0  0  0  0
  7  8  4  0  0  0  0
  8  9  4  0  0  0  0
  4  9  4  0  0  0  0
  8 10  4  0  0  0  0
 10 11  4  0  0  0  0
 11 12  1  0  0  0  0
 12 13  2  0  0  0  0
 12 14  1  0  0  0  0
 14 15  1  0  0  0  0
 15 16  1  0  0  0  0
 16 17  1  0  0  0  0
 17 18  1  0  0  0  0
 18 19  1  0  0  0  0
 19 20  1  0  0  0  0
 20 21  1  0  0  0  0
 19 21  1  0  0  0  0
 18 22  1  0  0  0  0
 22 23  1  0  0  0  0
 15 23  1  0  0  0  0
 11 24  4  0  0  0  0
  7 24  4  0  0  0  0
 24 25  1  0  0  0  0
 25 26  1  0  0  0  0
 26 27  4  0  0  0  0
 27 28  4  0  0  0  0
 28 29  1  0  0  0  0
 29 30  4  0  0  0  0
 30 31  4  0  0  0  0
 31 32  4  0  0  0  0
 32 33  1  0  0  0  0
 32 34  4  0  0  0  0
 29 34  4  0  0  0  0
 28 35  4  0  0  0  0
 35 36  4  0  0  0  0
 26 36  4  0  0  0  0
M  END
> <activity>
46.2

> <InChiKey>
PQDRCVHHJPMGKO-UHFFFAOYSA-N

$$$$

  Mrv2220 08292413132D          

 19 20  0  0  0  0            999 V2000
   -1.2400   -4.0623    0.0000 C   0  0  0  0  0  0  0  0  0  0  0  0
   -0.4331   -3.8908    0.0000 O   0  0  0  0  0  0  0  0  0  0  0  0
   -0.1781   -3.1062    0.0000 P   0  0  0  0  0  0  0  0  0  0  0  0
    0.6065   -3.3611    0.0000 O   0  0  0  0  0  0  0  0  0  0  0  0
   -0.9628   -2.8512    0.0000 O   0  0  0  0  0  0  0  0  0  0  0  0
   -1.1343   -2.0442    0.0000 C   0  0  0  0  0  0  0  0  0  0  0  0
    0.0768   -2.3215    0.0000 S   0  0  0  0  0  0  0  0  0  0  0  0
    0.8838   -2.1500    0.0000 C   0  0  0  0  0  0  0  0  0  0  0  0
    1.1387   -1.3654    0.0000 N   0  0  0  0  0  0  0  0  0  0  0  0
    0.6538   -0.6979    0.0000 C   0  0  0  0  0  0  0  0  0  0  0  0
   -0.1712   -0.6979    0.0000 O   0  0  0  0  0  0  0  0  0  0  0  0
    1.1387   -0.0305    0.0000 O   0  0  0  0  0  0  0  0  0  0  0  0
    1.9233   -0.2854    0.0000 C   0  0  0  0  0  0  0  0  0  0  0  0
    2.6378    0.1271    0.0000 C   0  0  0  0  0  0  0  0  0  0  0  0
    3.3523   -0.2854    0.0000 C   0  0  0  0  0  0  0  0  0  0  0  0
    4.0668    0.1271    0.0000 Cl  0  0  0  0  0  0  0  0  0  0  0  0
    3.3523   -1.1104    0.0000 C   0  0  0  0  0  0  0  0  0  0  0  0
    2.6378   -1.5229    0.0000 N   0  0  0  0  0  0  0  0  0  0  0  0
    1.9233   -1.1104    0.0000 C   0  0  0  0  0  0  0  0  0  0  0  0
  1  2  1  0  0  0  0
  2  3  1  0  0  0  0
  3  4  2  0  0  0  0
  3  5  1  0  0  0  0
  5  6  1  0  0  0  0
  3  7  1  0  0  0  0
  7  8  1  0  0  0  0
  8  9  1  0  0  0  0
  9 10  4  0  0  0  0
 10 11  2  0  0  0  0
 10 12  4  0  0  0  0
 12 13  4  0  0  0  0
 13 14  4  0  0  0  0
 14 15  4  0  0  0  0
 15 16  1  0  0  0  0
 15 17  4  0  0  0  0
 17 18  4  0  0  0  0
 18 19  4  0  0  0  0
 13 19  4  0  0  0  0
  9 19  4  0  0  0  0
M  END
> <activity>
34.3

> <InChiKey>
VNKBTWQZTQIWDV-UHFFFAOYSA-N

$$$$

  Mrv2220 08292413132D          

 19 21  0  0  0  0            999 V2000
    4.9186    1.3325    0.0000 C   0  0  0  0  0  0  0  0  0  0  0  0
    4.7471    2.1394    0.0000 N   0  0  0  0  0  0  0  0  0  0  0  0
    5.2991    2.7525    0.0000 C   0  0  0  0  0  0  0  0  0  0  0  0
    4.8866    3.4670    0.0000 N   0  0  0  0  0  0  0  0  0  0  0  0
    4.0796    3.2955    0.0000 C   0  0  0  0  0  0  0  0  0  0  0  0
    3.4665    3.8475    0.0000 N   0  3  0  0  0  0  0  0  0  0  0  0
    2.6819    3.5926    0.0000 O   0  0  0  0  0  0  0  0  0  0  0  0
    3.6381    4.6545    0.0000 O   0  5  0  0  0  0  0  0  0  0  0  0
    3.9934    2.4750    0.0000 C   0  0  0  0  0  0  0  0  0  0  0  0
    3.2789    2.0625    0.0000 S   0  0  0  0  0  0  0  0  0  0  0  0
    3.2789    1.2375    0.0000 C   0  0  0  0  0  0  0  0  0  0  0  0
    3.9934    0.8250    0.0000 N   0  0  0  0  0  0  0  0  0  0  0  0
    3.9934    0.0000    0.0000 C   0  0  0  0  0  0  0  0  0  0  0  0
    3.2789   -0.4125    0.0000 N   0  0  0  0  0  0  0  0  0  0  0  0
    2.5645    0.0000    0.0000 C   0  0  0  0  0  0  0  0  0  0  0  0
    1.7798   -0.2549    0.0000 N   0  0  0  0  0  0  0  0  0  0  0  0
    1.2949    0.4125    0.0000 C   0  0  0  0  0  0  0  0  0  0  0  0
    1.7798    1.0799    0.0000 N   0  0  0  0  0  0  0  0  0  0  0  0
    2.5645    0.8250    0.0000 C   0  0  0  0  0  0  0  0  0  0  0  0
  1  2  1  0  0  0  0
  2  3  4  0  0  0  0
  3  4  4  0  0  0  0
  4  5  4  0  0  0  0
  5  6  1  0  0  0  0
  6  7  2  0  0  0  0
  6  8  1  0  0  0  0
  5  9  4  0  0  0  0
  2  9  4  0  0  0  0
  9 10  1  0  0  0  0
 10 11  1  0  0  0  0
 11 12  4  0  0  0  0
 12 13  4  0  0  0  0
 13 14  4  0  0  0  0
 14 15  4  0  0  0  0
 15 16  4  0  0  0  0
 16 17  4  0  0  0  0
 17 18  4  0  0  0  0
 18 19  4  0  0  0  0
 11 19  4  0  0  0  0
 15 19  4  0  0  0  0
M  CHG  2   6   1   8  -1
M  STY  1   1 DAT
M  SAL   1  1  18
M  SDT   1 MRV_IMPLICIT_H                                        
M  SDD   1     0.5304   -0.4125    DR    ALL  0       0  
M  SED   1 IMPL_H1
M  END
> <activity>
86.8

> <InChiKey>
LMEKQMALGUDUQG-UHFFFAOYSA-N

$$$$

  Mrv2220 08292413132D          

 36 39  0  0  0  0            999 V2000
    2.1434   -3.7125    0.0000 C   0  0  0  0  0  0  0  0  0  0  0  0
    2.1434   -2.8875    0.0000 C   0  0  0  0  0  0  0  0  0  0  0  0
    1.4289   -2.4750    0.0000 N   0  0  0  0  0  0  0  0  0  0  0  0
    1.4289   -1.6500    0.0000 C   0  0  0  0  0  0  0  0  0  0  0  0
    0.7145   -1.2375    0.0000 C   0  0  0  0  0  0  0  0  0  0  0  0
    0.7145   -0.4125    0.0000 C   0  0  0  0  0  0  0  0  0  0  0  0
    1.4289    0.0000    0.0000 C   0  0  0  0  0  0  0  0  0  0  0  0
    1.4289    0.8250    0.0000 C   0  0  0  0  0  0  0  0  0  0  0  0
    2.1434    1.2375    0.0000 C   0  0  0  0  0  0  0  0  0  0  0  0
    2.1434    2.0625    0.0000 C   0  0  0  0  0  0  0  0  0  0  0  0
    2.8579    2.4750    0.0000 C   0  0  0  0  0  0  0  0  0  0  0  0
    3.5724    2.0625    0.0000 C   0  0  0  0  0  0  0  0  0  0  0  0
    4.2868    2.4750    0.0000 N   0  3  0  0  0  0  0  0  0  0  0  0
    4.2868    3.3000    0.0000 C   0  0  0  0  0  0  0  0  0  0  0  0
    3.5724    3.7125    0.0000 C   0  0  0  0  0  0  0  0  0  0  0  0
    5.0013    2.0625    0.0000 C   0  0  0  0  0  0  0  0  0  0  0  0
    5.7158    2.4750    0.0000 C   0  0  0  0  0  0  0  0  0  0  0  0
    3.5724    1.2375    0.0000 C   0  0  0  0  0  0  0  0  0  0  0  0
    2.8579    0.8250    0.0000 C   0  0  0  0  0  0  0  0  0  0  0  0
    0.7145    1.2375    0.0000 C   0  0  0  0  0  0  0  0  0  0  0  0
    0.0000    0.8250    0.0000 C   0  0  0  0  0  0  0  0  0  0  0  0
   -0.7145    1.2375    0.0000 C   0  0  0  0  0  0  0  0  0  0  0  0
   -0.7145    2.0625    0.0000 C   0  0  0  0  0  0  0  0  0  0  0  0
   -1.4289    2.4750    0.0000 N   0  0  0  0  0  0  0  0  0  0  0  0
   -2.1434    2.0625    0.0000 C   0  0  0  0  0  0  0  0  0  0  0  0
   -2.8579    2.4750    0.0000 C   0  0  0  0  0  0  0  0  0  0  0  0
   -1.4289    3.3000    0.0000 C   0  0  0  0  0  0  0  0  0  0  0  0
   -0.7145    3.7125    0.0000 C   0  0  0  0  0  0  0  0  0  0  0  0
    0.0000    2.4750    0.0000 C   0  0  0  0  0  0  0  0  0  0  0  0
    0.7145    2.0625    0.0000 C   0  0  0  0  0  0  0  0  0  0  0  0
    2.1434   -0.4125    0.0000 C   0  0  0  0  0  0  0  0  0  0  0  0
    2.8579    0.0000    0.0000 C   0  0  0  0  0  0  0  0  0  0  0  0
    3.5724   -0.4125    0.0000 C   0  0  0  0  0  0  0  0  0  0  0  0
    3.5724   -1.2375    0.0000 C   0  0  0  0  0  0  0  0  0  0  0  0
    2.8579   -1.6500    0.0000 C   0  0  0  0  0  0  0  0  0  0  0  0
    2.1434   -1.2375    0.0000 C   0  0  0  0  0  0  0  0  0  0  0  0
  1  2  1  0  0  0  0
  2  3  1  0  0  0  0
  3  4  1  0  0  0  0
  4  5  4  0  0  0  0
  5  6  4  0  0  0  0
  6  7  4  0  0  0  0
  7  8  1  0  0  0  0
  8  9  2  0  0  0  0
  9 10  1  0  0  0  0
 10 11  2  0  0  0  0
 11 12  1  0  0  0  0
 12 13  2  0  0  0  0
 13 14  1  0  0  0  0
 14 15  1  0  0  0  0
 13 16  1  0  0  0  0
 16 17  1  0  0  0  0
 12 18  1  0  0  0  0
 18 19  2  0  0  0  0
  9 19  1  0  0  0  0
  8 20  1  0  0  0  0
 20 21  4  0  0  0  0
 21 22  4  0  0  0  0
 22 23  4  0  0  0  0
 23 24  1  0  0  0  0
 24 25  1  0  0  0  0
 25 26  1  0  0  0  0
 24 27  1  0  0  0  0
 27 28  1  0  0  0  0
 23 29  4  0  0  0  0
 29 30  4  0  0  0  0
 20 30  4  0  0  0  0
  7 31  4  0  0  0  0
 31 32  4  0  0  0  0
 32 33  4  0  0  0  0
 33 34  4  0  0  0  0
 34 35  4  0  0  0  0
 35 36  4  0  0  0  0
  4 36  4  0  0  0  0
 31 36  4  0  0  0  0
M  CHG  1  13   1
M  END
> <activity>
110.3

> <InChiKey>
ALMMLSQBERCMRB-UHFFFAOYSA-O

$$$$

  Mrv2220 08292413132D          

 16 17  0  0  0  0            999 V2000
    4.7079    3.7125    0.0000 C   0  0  0  0  0  0  0  0  0  0  0  0
    3.9934    3.3000    0.0000 N   0  0  0  0  0  0  0  0  0  0  0  0
    3.9934    2.4750    0.0000 C   0  0  0  0  0  0  0  0  0  0  0  0
    4.7079    2.0625    0.0000 O   0  0  0  0  0  0  0  0  0  0  0  0
    3.2789    2.0625    0.0000 O   0  0  0  0  0  0  0  0  0  0  0  0
    3.2789    1.2375    0.0000 C   0  0  0  0  0  0  0  0  0  0  0  0
    3.9934    0.8250    0.0000 C   0  0  0  0  0  0  0  0  0  0  0  0
    3.9934    0.0000    0.0000 C   0  0  0  0  0  0  0  0  0  0  0  0
    3.2789   -0.4125    0.0000 C   0  0  0  0  0  0  0  0  0  0  0  0
    2.5645    0.0000    0.0000 C   0  0  0  0  0  0  0  0  0  0  0  0
    2.5645    0.8250    0.0000 C   0  0  0  0  0  0  0  0  0  0  0  0
    1.7798    1.0799    0.0000 O   0  0  0  0  0  0  0  0  0  0  0  0
    1.2949    0.4125    0.0000 C   0  0  0  0  0  0  0  0  0  0  0  0
    0.6818    0.9645    0.0000 C   0  0  0  0  0  0  0  0  0  0  0  0
    0.6818   -0.1395    0.0000 C   0  0  0  0  0  0  0  0  0  0  0  0
    1.7798   -0.2549    0.0000 O   0  0  0  0  0  0  0  0  0  0  0  0
  1  2  1  0  0  0  0
  2  3  1  0  0  0  0
  3  4  2  0  0  0  0
  3  5  1  0  0  0  0
  5  6  1  0  0  0  0
  6  7  4  0  0  0  0
  7  8  4  0  0  0  0
  8  9  4  0  0  0  0
  9 10  4  0  0  0  0
 10 11  4  0  0  0  0
  6 11  4  0  0  0  0
 11 12  1  0  0  0  0
 12 13  1  0  0  0  0
 13 14  1  0  0  0  0
 13 15  1  0  0  0  0
 13 16  1  0  0  0  0
 10 16  1  0  0  0  0
M  END
> <activity>
24.2

> <InChiKey>
XEGGRYVFLWGFHI-UHFFFAOYSA-N

$$$$

  Mrv2220 08292413132D          

 23 23  0  0  0  0            999 V2000
    1.7309   -2.1730    0.0000 C   0  0  0  0  0  0  0  0  0  0  0  0
    2.1434   -2.8875    0.0000 C   0  0  0  0  0  0  0  0  0  0  0  0
    2.9684   -2.8875    0.0000 C   0  0  0  0  0  0  0  0  0  0  0  0
    3.3809   -3.6020    0.0000 C   0  0  0  0  0  0  0  0  0  0  0  0
    4.2059   -3.6020    0.0000 N   0  0  0  0  0  0  0  0  0  0  0  0
    4.6184   -2.8875    0.0000 C   0  0  0  0  0  0  0  0  0  0  0  0
    4.2059   -2.1730    0.0000 C   0  0  0  0  0  0  0  0  0  0  0  0
    4.6184   -4.3164    0.0000 C   0  0  0  0  0  0  0  0  0  0  0  0
    5.4434   -4.3164    0.0000 C   0  0  0  0  0  0  0  0  0  0  0  0
    5.8559   -3.6020    0.0000 N   0  3  0  0  0  0  0  0  0  0  0  0
    6.6809   -3.6020    0.0000 O   0  0  0  0  0  0  0  0  0  0  0  0
    5.4434   -2.8875    0.0000 O   0  5  0  0  0  0  0  0  0  0  0  0
    5.8559   -5.0309    0.0000 C   0  0  0  0  0  0  0  0  0  0  0  0
    5.4434   -5.7454    0.0000 C   0  0  0  0  0  0  0  0  0  0  0  0
    5.8559   -6.4599    0.0000 C   0  0  0  0  0  0  0  0  0  0  0  0
    6.2684   -7.1743    0.0000 F   0  0  0  0  0  0  0  0  0  0  0  0
    5.1414   -6.8724    0.0000 F   0  0  0  0  0  0  0  0  0  0  0  0
    6.5704   -6.0474    0.0000 F   0  0  0  0  0  0  0  0  0  0  0  0
    4.6184   -5.7454    0.0000 C   0  0  0  0  0  0  0  0  0  0  0  0
    4.2059   -5.0309    0.0000 C   0  0  0  0  0  0  0  0  0  0  0  0
    3.3809   -5.0309    0.0000 N   0  3  0  0  0  0  0  0  0  0  0  0
    2.9684   -4.3164    0.0000 O   0  0  0  0  0  0  0  0  0  0  0  0
    2.9684   -5.7454    0.0000 O   0  5  0  0  0  0  0  0  0  0  0  0
  1  2  1  0  0  0  0
  2  3  1  0  0  0  0
  3  4  1  0  0  0  0
  4  5  1  0  0  0  0
  5  6  1  0  0  0  0
  6  7  1  0  0  0  0
  5  8  1  0  0  0  0
  8  9  4  0  0  0  0
  9 10  1  0  0  0  0
 10 11  2  0  0  0  0
 10 12  1  0  0  0  0
  9 13  4  0  0  0  0
 13 14  4  0  0  0  0
 14 15  1  0  0  0  0
 15 16  1  0  0  0  0
 15 17  1  0  0  0  0
 15 18  1  0  0  0  0
 14 19  4  0  0  0  0
 19 20  4  0  0  0  0
  8 20  4  0  0  0  0
 20 21  1  0  0  0  0
 21 22  2  0  0  0  0
 21 23  1  0  0  0  0
M  CHG  4  10   1  12  -1  21   1  23  -1
M  END
> <activity>
37.5

> <InChiKey>
SMDHCQAYESWHAE-UHFFFAOYSA-N

$$$$

  Mrv2220 08292413132D          

 16 17  0  0  0  0            999 V2000
    0.0000   -1.6500    0.0000 O   0  0  0  0  0  0  0  0  0  0  0  0
    0.7145   -1.2375    0.0000 C   0  0  0  0  0  0  0  0  0  0  0  0
    1.4289   -1.6500    0.0000 N   0  0  0  0  0  0  0  0  0  0  0  0
    1.4289   -2.4750    0.0000 C   0  0  0  0  0  0  0  0  0  0  0  0
    2.1434   -2.8875    0.0000 C   0  0  0  0  0  0  0  0  0  0  0  0
    2.1434   -3.7125    0.0000 C   0  0  0  0  0  0  0  0  0  0  0  0
    1.4289   -4.1250    0.0000 C   0  0  0  0  0  0  0  0  0  0  0  0
    0.7145   -3.7125    0.0000 C   0  0  0  0  0  0  0  0  0  0  0  0
    0.7145   -2.8875    0.0000 C   0  0  0  0  0  0  0  0  0  0  0  0
    0.7145   -0.4125    0.0000 C   0  0  0  0  0  0  0  0  0  0  0  0
    0.0000    0.0000    0.0000 C   0  0  0  0  0  0  0  0  0  0  0  0
    0.0000    0.8250    0.0000 C   0  0  0  0  0  0  0  0  0  0  0  0
    0.7145    1.2375    0.0000 C   0  0  0  0  0  0  0  0  0  0  0  0
    1.4289    0.8250    0.0000 C   0  0  0  0  0  0  0  0  0  0  0  0
    1.4289    0.0000    0.0000 C   0  0  0  0  0  0  0  0  0  0  0  0
    2.1434   -0.4125    0.0000 I   0  0  0  0  0  0  0  0  0  0  0  0
  1  2  2  0  0  0  0
  2  3  1  0  0  0  0
  3  4  1  0  0  0  0
  4  5  4  0  0  0  0
  5  6  4  0  0  0  0
  6  7  4  0  0  0  0
  7  8  4  0  0  0  0
  8  9  4  0  0  0  0
  4  9  4  0  0  0  0
  2 10  1  0  0  0  0
 10 11  4  0  0  0  0
 11 12  4  0  0  0  0
 12 13  4  0  0  0  0
 13 14  4  0  0  0  0
 14 15  4  0  0  0  0
 10 15  4  0  0  0  0
 15 16  1  0  0  0  0
M  END
> <activity>
73.6

> <InChiKey>
LJOZMWRYMKECFF-UHFFFAOYSA-N

$$$$

  Mrv2220 08292413132D          

 21 22  0  0  0  0            999 V2000
    2.7287   -3.5884    0.0000 C   0  0  0  0  0  0  0  0  0  0  0  0
    3.4432   -3.1759    0.0000 C   0  0  0  0  0  0  0  0  0  0  0  0
    4.1577   -3.5884    0.0000 C   0  0  0  0  0  0  0  0  0  0  0  0
    4.8721   -3.1759    0.0000 C   0  0  0  0  0  0  0  0  0  0  0  0
    5.5866   -3.5884    0.0000 N   0  0  0  0  0  0  0  0  0  0  0  0
    6.3011   -3.1759    0.0000 C   0  0  0  0  0  0  0  0  0  0  0  0
    7.0156   -3.5884    0.0000 O   0  0  0  0  0  0  0  0  0  0  0  0
    6.3011   -2.3509    0.0000 N   0  0  0  0  0  0  0  0  0  0  0  0
    5.6336   -1.8660    0.0000 C   0  0  0  0  0  0  0  0  0  0  0  0
    4.8490   -2.1210    0.0000 N   0  0  0  0  0  0  0  0  0  0  0  0
    4.2359   -1.5689    0.0000 C   0  0  0  0  0  0  0  0  0  0  0  0
    4.4075   -0.7619    0.0000 O   0  0  0  0  0  0  0  0  0  0  0  0
    3.4513   -1.8239    0.0000 O   0  0  0  0  0  0  0  0  0  0  0  0
    2.8382   -1.2718    0.0000 C   0  0  0  0  0  0  0  0  0  0  0  0
    5.8886   -1.0814    0.0000 N   0  0  0  0  0  0  0  0  0  0  0  0
    6.7136   -1.0814    0.0000 C   0  0  0  0  0  0  0  0  0  0  0  0
    7.2656   -0.4683    0.0000 C   0  0  0  0  0  0  0  0  0  0  0  0
    8.0726   -0.6398    0.0000 C   0  0  0  0  0  0  0  0  0  0  0  0
    8.3275   -1.4244    0.0000 C   0  0  0  0  0  0  0  0  0  0  0  0
    7.7755   -2.0375    0.0000 C   0  0  0  0  0  0  0  0  0  0  0  0
    6.9685   -1.8660    0.0000 C   0  0  0  0  0  0  0  0  0  0  0  0
  1  2  1  0  0  0  0
  2  3  1  0  0  0  0
  3  4  1  0  0  0  0
  4  5  1  0  0  0  0
  5  6  1  0  0  0  0
  6  7  2  0  0  0  0
  6  8  1  0  0  0  0
  8  9  4  0  0  0  0
  9 10  1  0  0  0  0
 10 11  1  0  0  0  0
 11 12  2  0  0  0  0
 11 13  1  0  0  0  0
 13 14  1  0  0  0  0
  9 15  4  0  0  0  0
 15 16  4  0  0  0  0
 16 17  4  0  0  0  0
 17 18  4  0  0  0  0
 18 19  4  0  0  0  0
 19 20  4  0  0  0  0
 20 21  4  0  0  0  0
 16 21  4  0  0  0  0
  8 21  4  0  0  0  0
M  END
> <activity>
40.4

> <InChiKey>
RIOXQFHNBCKOKP-UHFFFAOYSA-N

$$$$

  Mrv2220 08292413132D          

 23 23  0  0  0  0            999 V2000
   -1.4289    7.4250    0.0000 C   0  0  0  0  0  0  0  0  0  0  0  0
   -1.4289    6.6000    0.0000 C   0  0  0  0  0  0  0  0  0  0  0  0
   -2.1434    6.1875    0.0000 C   0  0  0  0  0  0  0  0  0  0  0  0
   -0.7145    6.1875    0.0000 O   0  0  0  0  0  0  0  0  0  0  0  0
   -0.7145    5.3625    0.0000 P   0  0  0  0  0  0  0  0  0  0  0  0
   -1.5395    5.3625    0.0000 S   0  0  0  0  0  0  0  0  0  0  0  0
    0.1105    5.3625    0.0000 O   0  0  0  0  0  0  0  0  0  0  0  0
    0.5230    6.0770    0.0000 C   0  0  0  0  0  0  0  0  0  0  0  0
    1.3480    6.0770    0.0000 C   0  0  0  0  0  0  0  0  0  0  0  0
    0.1105    6.7914    0.0000 C   0  0  0  0  0  0  0  0  0  0  0  0
   -0.7145    4.5375    0.0000 S   0  0  0  0  0  0  0  0  0  0  0  0
    0.0000    4.1250    0.0000 C   0  0  0  0  0  0  0  0  0  0  0  0
    0.0000    3.3000    0.0000 C   0  0  0  0  0  0  0  0  0  0  0  0
    0.7145    2.8875    0.0000 N   0  0  0  0  0  0  0  0  0  0  0  0
    0.7145    2.0625    0.0000 S   0  0  0  0  0  0  0  0  0  0  0  0
   -0.1105    2.0625    0.0000 O   0  0  0  0  0  0  0  0  0  0  0  0
    1.5395    2.0625    0.0000 O   0  0  0  0  0  0  0  0  0  0  0  0
    0.7145    1.2375    0.0000 C   0  0  0  0  0  0  0  0  0  0  0  0
    1.4289    0.8250    0.0000 C   0  0  0  0  0  0  0  0  0  0  0  0
    1.4289   -0.0000    0.0000 C   0  0  0  0  0  0  0  0  0  0  0  0
    0.7145   -0.4125    0.0000 C   0  0  0  0  0  0  0  0  0  0  0  0
    0.0000    0.0000    0.0000 C   0  0  0  0  0  0  0  0  0  0  0  0
    0.0000    0.8250    0.0000 C   0  0  0  0  0  0  0  0  0  0  0  0
  1  2  1  0  0  0  0
  2  3  1  0  0  0  0
  2  4  1  0  0  0  0
  4  5  1  0  0  0  0
  5  6  2  0  0  0  0
  5  7  1  0  0  0  0
  7  8  1  0  0  0  0
  8  9  1  0  0  0  0
  8 10  1  0  0  0  0
  5 11  1  0  0  0  0
 11 12  1  0  0  0  0
 12 13  1  0  0  0  0
 13 14  1  0  0  0  0
 14 15  1  0  0  0  0
 15 16  2  0  0  0  0
 15 17  2  0  0  0  0
 15 18  1  0  0  0  0
 18 19  4  0  0  0  0
 19 20  4  0  0  0  0
 20 21  4  0  0  0  0
 21 22  4  0  0  0  0
 22 23  4  0  0  0  0
 18 23  4  0  0  0  0
M  END
> <activity>
21.5

> <InChiKey>
RRNIZKPFKNDSRS-UHFFFAOYSA-N

$$$$

  Mrv2220 08292413132D          

  9  9  0  0  0  0            999 V2000
    0.0000    2.4750    0.0000 Cl  0  0  0  0  0  0  0  0  0  0  0  0
    0.7145    2.0625    0.0000 C   0  0  0  0  0  0  0  0  0  0  0  0
    1.4289    2.4750    0.0000 Cl  0  0  0  0  0  0  0  0  0  0  0  0
    0.7145    1.2375    0.0000 C   0  0  0  0  0  0  0  0  0  0  0  0
    1.4289    0.8250    0.0000 C   0  0  0  0  0  0  0  0  0  0  0  0
    1.4289   -0.0000    0.0000 C   0  0  0  0  0  0  0  0  0  0  0  0
    0.7145   -0.4125    0.0000 C   0  0  0  0  0  0  0  0  0  0  0  0
    0.0000    0.0000    0.0000 C   0  0  0  0  0  0  0  0  0  0  0  0
    0.0000    0.8250    0.0000 C   0  0  0  0  0  0  0  0  0  0  0  0
  1  2  1  0  0  0  0
  2  3  1  0  0  0  0
  2  4  1  0  0  0  0
  4  5  4  0  0  0  0
  5  6  4  0  0  0  0
  6  7  4  0  0  0  0
  7  8  4  0  0  0  0
  8  9  4  0  0  0  0
  4  9  4  0  0  0  0
M  END
> <activity>
12.4

> <InChiKey>
CAHQGWAXKLQREW-UHFFFAOYSA-N

$$$$

  Mrv2220 08292413132D          

 12 12  0  0  0  0            999 V2000
   -0.7145    3.7125    0.0000 C   0  0  0  0  0  0  0  0  0  0  0  0
    0.0000    3.3000    0.0000 C   0  0  0  0  0  0  0  0  0  0  0  0
    0.0000    2.4750    0.0000 O   0  0  0  0  0  0  0  0  0  0  0  0
    0.7145    2.0625    0.0000 C   0  0  0  0  0  0  0  0  0  0  0  0
    1.4289    2.4750    0.0000 O   0  0  0  0  0  0  0  0  0  0  0  0
    0.7145    1.2375    0.0000 C   0  0  0  0  0  0  0  0  0  0  0  0
    1.4289    0.8250    0.0000 C   0  0  0  0  0  0  0  0  0  0  0  0
    1.4289   -0.0000    0.0000 C   0  0  0  0  0  0  0  0  0  0  0  0
    0.7145   -0.4125    0.0000 C   0  0  0  0  0  0  0  0  0  0  0  0
    0.7145   -1.2375    0.0000 N   0  0  0  0  0  0  0  0  0  0  0  0
    0.0000    0.0000    0.0000 C   0  0  0  0  0  0  0  0  0  0  0  0
    0.0000    0.8250    0.0000 C   0  0  0  0  0  0  0  0  0  0  0  0
  1  2  1  0  0  0  0
  2  3  1  0  0  0  0
  3  4  1  0  0  0  0
  4  5  2  0  0  0  0
  4  6  1  0  0  0  0
  6  7  4  0  0  0  0
  7  8  4  0  0  0  0
  8  9  4  0  0  0  0
  9 10  1  0  0  0  0
  9 11  4  0  0  0  0
 11 12  4  0  0  0  0
  6 12  4  0  0  0  0
M  END
> <activity>
37.3

> <InChiKey>
BLFLLBZGZJTVJG-UHFFFAOYSA-N

$$$$

  Mrv2220 08292413132D          

 16 17  0  0  0  0            999 V2000
    2.1434   -1.2375    0.0000 O   0  0  0  0  0  0  0  0  0  0  0  0
    1.4289   -1.6500    0.0000 C   0  0  0  0  0  0  0  0  0  0  0  0
    1.4289   -2.4750    0.0000 C   0  0  0  0  0  0  0  0  0  0  0  0
    2.1434   -2.8875    0.0000 C   0  0  0  0  0  0  0  0  0  0  0  0
    2.1434   -3.7125    0.0000 C   0  0  0  0  0  0  0  0  0  0  0  0
    1.4289   -4.1250    0.0000 C   0  0  0  0  0  0  0  0  0  0  0  0
    0.7145   -3.7125    0.0000 C   0  0  0  0  0  0  0  0  0  0  0  0
    0.7145   -2.8875    0.0000 C   0  0  0  0  0  0  0  0  0  0  0  0
    0.7145   -1.2375    0.0000 C   0  0  0  0  0  0  0  0  0  0  0  0
    0.0000   -1.6500    0.0000 O   0  0  0  0  0  0  0  0  0  0  0  0
    0.7145   -0.4125    0.0000 C   0  0  0  0  0  0  0  0  0  0  0  0
    0.0000    0.0000    0.0000 C   0  0  0  0  0  0  0  0  0  0  0  0
    0.0000    0.8250    0.0000 C   0  0  0  0  0  0  0  0  0  0  0  0
    0.7145    1.2375    0.0000 C   0  0  0  0  0  0  0  0  0  0  0  0
    1.4289    0.8250    0.0000 C   0  0  0  0  0  0  0  0  0  0  0  0
    1.4289    0.0000    0.0000 C   0  0  0  0  0  0  0  0  0  0  0  0
  1  2  2  0  0  0  0
  2  3  1  0  0  0  0
  3  4  4  0  0  0  0
  4  5  4  0  0  0  0
  5  6  4  0  0  0  0
  6  7  4  0  0  0  0
  7  8  4  0  0  0  0
  3  8  4  0  0  0  0
  2  9  1  0  0  0  0
  9 10  1  0  0  0  0
  9 11  1  0  0  0  0
 11 12  4  0  0  0  0
 12 13  4  0  0  0  0
 13 14  4  0  0  0  0
 14 15  4  0  0  0  0
 15 16  4  0  0  0  0
 11 16  4  0  0  0  0
M  END
> <activity>
57.4

> <InChiKey>
ISAOCJYIOMOJEB-UHFFFAOYSA-N

$$$$

  Mrv2220 08292413132D          

 14 15  0  0  0  0            999 V2000
    1.4289    0.0000    0.0000 O   0  0  0  0  0  0  0  0  0  0  0  0
    2.1434   -0.4125    0.0000 C   0  0  0  0  0  0  0  0  0  0  0  0
    2.1434   -1.2375    0.0000 C   0  0  0  0  0  0  0  0  0  0  0  0
    2.8579   -1.6500    0.0000 C   0  0  0  0  0  0  0  0  0  0  0  0
    2.8579   -2.4750    0.0000 C   0  0  0  0  0  0  0  0  0  0  0  0
    2.1434   -2.8875    0.0000 C   0  0  0  0  0  0  0  0  0  0  0  0
    1.4289   -2.4750    0.0000 C   0  0  0  0  0  0  0  0  0  0  0  0
    1.4289   -1.6500    0.0000 C   0  0  0  0  0  0  0  0  0  0  0  0
    2.8579    0.0000    0.0000 C   0  0  0  0  0  0  0  0  0  0  0  0
    2.8579    0.8250    0.0000 C   0  0  0  0  0  0  0  0  0  0  0  0
    3.5724    1.2375    0.0000 C   0  0  0  0  0  0  0  0  0  0  0  0
    4.2868    0.8250    0.0000 C   0  0  0  0  0  0  0  0  0  0  0  0
    4.2868    0.0000    0.0000 C   0  0  0  0  0  0  0  0  0  0  0  0
    3.5724   -0.4125    0.0000 C   0  0  0  0  0  0  0  0  0  0  0  0
  1  2  2  0  0  0  0
  2  3  1  0  0  0  0
  3  4  4  0  0  0  0
  4  5  4  0  0  0  0
  5  6  4  0  0  0  0
  6  7  4  0  0  0  0
  7  8  4  0  0  0  0
  3  8  4  0  0  0  0
  2  9  1  0  0  0  0
  9 10  4  0  0  0  0
 10 11  4  0  0  0  0
 11 12  4  0  0  0  0
 12 13  4  0  0  0  0
 13 14  4  0  0  0  0
  9 14  4  0  0  0  0
M  END
> <activity>
87.0

> <InChiKey>
RWCCWEUUXYIKHB-UHFFFAOYSA-N

$$$$

  Mrv2220 08292413132D          

 10 10  0  0  0  0            999 V2000
    0.7145    2.8875    0.0000 Cl  0  0  0  0  0  0  0  0  0  0  0  0
    0.7145    2.0625    0.0000 C   0  0  0  0  0  0  0  0  0  0  0  0
   -0.1105    2.0625    0.0000 Cl  0  0  0  0  0  0  0  0  0  0  0  0
    1.5395    2.0625    0.0000 Cl  0  0  0  0  0  0  0  0  0  0  0  0
    0.7145    1.2375    0.0000 C   0  0  0  0  0  0  0  0  0  0  0  0
    1.4289    0.8250    0.0000 C   0  0  0  0  0  0  0  0  0  0  0  0
    1.4289   -0.0000    0.0000 C   0  0  0  0  0  0  0  0  0  0  0  0
    0.7145   -0.4125    0.0000 C   0  0  0  0  0  0  0  0  0  0  0  0
    0.0000    0.0000    0.0000 C   0  0  0  0  0  0  0  0  0  0  0  0
    0.0000    0.8250    0.0000 C   0  0  0  0  0  0  0  0  0  0  0  0
  1  2  1  0  0  0  0
  2  3  1  0  0  0  0
  2  4  1  0  0  0  0
  2  5  1  0  0  0  0
  5  6  4  0  0  0  0
  6  7  4  0  0  0  0
  7  8  4  0  0  0  0
  8  9  4  0  0  0  0
  9 10  4  0  0  0  0
  5 10  4  0  0  0  0
M  END
> <activity>
62.4

> <InChiKey>
XEMRAKSQROQPBR-UHFFFAOYSA-N

$$$$

  Mrv2220 08292413132D          

 17 18  0  0  0  0            999 V2000
    2.8579    0.0000    0.0000 O   0  0  0  0  0  0  0  0  0  0  0  0
    3.5724   -0.4125    0.0000 C   0  0  0  0  0  0  0  0  0  0  0  0
    3.5724   -1.2375    0.0000 O   0  0  0  0  0  0  0  0  0  0  0  0
    2.8579   -1.6500    0.0000 C   0  0  0  0  0  0  0  0  0  0  0  0
    2.8579   -2.4750    0.0000 C   0  0  0  0  0  0  0  0  0  0  0  0
    3.5724   -2.8875    0.0000 C   0  0  0  0  0  0  0  0  0  0  0  0
    3.5724   -3.7125    0.0000 C   0  0  0  0  0  0  0  0  0  0  0  0
    2.8579   -4.1250    0.0000 C   0  0  0  0  0  0  0  0  0  0  0  0
    2.1434   -3.7125    0.0000 C   0  0  0  0  0  0  0  0  0  0  0  0
    2.1434   -2.8875    0.0000 C   0  0  0  0  0  0  0  0  0  0  0  0
    4.2868    0.0000    0.0000 C   0  0  0  0  0  0  0  0  0  0  0  0
    4.2868    0.8250    0.0000 C   0  0  0  0  0  0  0  0  0  0  0  0
    5.0013    1.2375    0.0000 C   0  0  0  0  0  0  0  0  0  0  0  0
    5.7158    0.8250    0.0000 C   0  0  0  0  0  0  0  0  0  0  0  0
    6.4302    1.2375    0.0000 O   0  0  0  0  0  0  0  0  0  0  0  0
    5.7158   -0.0000    0.0000 C   0  0  0  0  0  0  0  0  0  0  0  0
    5.0013   -0.4125    0.0000 C   0  0  0  0  0  0  0  0  0  0  0  0
  1  2  2  0  0  0  0
  2  3  1  0  0  0  0
  3  4  1  0  0  0  0
  4  5  1  0  0  0  0
  5  6  4  0  0  0  0
  6  7  4  0  0  0  0
  7  8  4  0  0  0  0
  8  9  4  0  0  0  0
  9 10  4  0  0  0  0
  5 10  4  0  0  0  0
  2 11  1  0  0  0  0
 11 12  4  0  0  0  0
 12 13  4  0  0  0  0
 13 14  4  0  0  0  0
 14 15  1  0  0  0  0
 14 16  4  0  0  0  0
 16 17  4  0  0  0  0
 11 17  4  0  0  0  0
M  END
> <activity>
103.2

> <InChiKey>
MOZDKDIOPSPTBH-UHFFFAOYSA-N

$$$$

  Mrv2220 08292413132D          

 11 11  0  0  0  0            999 V2000
   -0.7145    3.7125    0.0000 C   0  0  0  0  0  0  0  0  0  0  0  0
    0.0000    3.3000    0.0000 C   0  0  0  0  0  0  0  0  0  0  0  0
    0.7145    3.7125    0.0000 O   0  0  0  0  0  0  0  0  0  0  0  0
    0.0000    2.4750    0.0000 O   0  0  0  0  0  0  0  0  0  0  0  0
    0.7145    2.0625    0.0000 C   0  0  0  0  0  0  0  0  0  0  0  0
    0.7145    1.2375    0.0000 C   0  0  0  0  0  0  0  0  0  0  0  0
    1.4289    0.8250    0.0000 C   0  0  0  0  0  0  0  0  0  0  0  0
    1.4289   -0.0000    0.0000 C   0  0  0  0  0  0  0  0  0  0  0  0
    0.7145   -0.4125    0.0000 C   0  0  0  0  0  0  0  0  0  0  0  0
    0.0000    0.0000    0.0000 C   0  0  0  0  0  0  0  0  0  0  0  0
    0.0000    0.8250    0.0000 C   0  0  0  0  0  0  0  0  0  0  0  0
  1  2  1  0  0  0  0
  2  3  2  0  0  0  0
  2  4  1  0  0  0  0
  4  5  1  0  0  0  0
  5  6  1  0  0  0  0
  6  7  4  0  0  0  0
  7  8  4  0  0  0  0
  8  9  4  0  0  0  0
  9 10  4  0  0  0  0
 10 11  4  0  0  0  0
  6 11  4  0  0  0  0
M  END
> <activity>
11.8

> <InChiKey>
QUKGYYKBILRGFE-UHFFFAOYSA-N

$$$$

  Mrv2220 08292413132D          

  8  8  0  0  0  0            999 V2000
    0.0000    2.4750    0.0000 O   0  0  0  0  0  0  0  0  0  0  0  0
    0.7145    2.0625    0.0000 C   0  0  0  0  0  0  0  0  0  0  0  0
    0.7145    1.2375    0.0000 C   0  0  0  0  0  0  0  0  0  0  0  0
    1.4289    0.8250    0.0000 C   0  0  0  0  0  0  0  0  0  0  0  0
    1.4289   -0.0000    0.0000 C   0  0  0  0  0  0  0  0  0  0  0  0
    0.7145   -0.4125    0.0000 C   0  0  0  0  0  0  0  0  0  0  0  0
    0.0000    0.0000    0.0000 C   0  0  0  0  0  0  0  0  0  0  0  0
    0.0000    0.8250    0.0000 C   0  0  0  0  0  0  0  0  0  0  0  0
  1  2  1  0  0  0  0
  2  3  1  0  0  0  0
  3  4  4  0  0  0  0
  4  5  4  0  0  0  0
  5  6  4  0  0  0  0
  6  7  4  0  0  0  0
  7  8  4  0  0  0  0
  3  8  4  0  0  0  0
M  END
> <activity>
43.3

> <InChiKey>
WVDDGKGOMKODPV-UHFFFAOYSA-N

$$$$

  Mrv2220 08292413132D          

 16 17  0  0  0  0            999 V2000
    2.8579    0.0000    0.0000 O   0  0  0  0  0  0  0  0  0  0  0  0
    3.5724   -0.4125    0.0000 C   0  0  0  0  0  0  0  0  0  0  0  0
    3.5724   -1.2375    0.0000 O   0  0  0  0  0  0  0  0  0  0  0  0
    2.8579   -1.6500    0.0000 C   0  0  0  0  0  0  0  0  0  0  0  0
    2.8579   -2.4750    0.0000 C   0  0  0  0  0  0  0  0  0  0  0  0
    3.5724   -2.8875    0.0000 C   0  0  0  0  0  0  0  0  0  0  0  0
    3.5724   -3.7125    0.0000 C   0  0  0  0  0  0  0  0  0  0  0  0
    2.8579   -4.1250    0.0000 C   0  0  0  0  0  0  0  0  0  0  0  0
    2.1434   -3.7125    0.0000 C   0  0  0  0  0  0  0  0  0  0  0  0
    2.1434   -2.8875    0.0000 C   0  0  0  0  0  0  0  0  0  0  0  0
    4.2868    0.0000    0.0000 C   0  0  0  0  0  0  0  0  0  0  0  0
    4.2868    0.8250    0.0000 C   0  0  0  0  0  0  0  0  0  0  0  0
    5.0013    1.2375    0.0000 C   0  0  0  0  0  0  0  0  0  0  0  0
    5.7158    0.8250    0.0000 C   0  0  0  0  0  0  0  0  0  0  0  0
    5.7158   -0.0000    0.0000 C   0  0  0  0  0  0  0  0  0  0  0  0
    5.0013   -0.4125    0.0000 C   0  0  0  0  0  0  0  0  0  0  0  0
  1  2  2  0  0  0  0
  2  3  1  0  0  0  0
  3  4  1  0  0  0  0
  4  5  1  0  0  0  0
  5  6  4  0  0  0  0
  6  7  4  0  0  0  0
  7  8  4  0  0  0  0
  8  9  4  0  0  0  0
  9 10  4  0  0  0  0
  5 10  4  0  0  0  0
  2 11  1  0  0  0  0
 11 12  4  0  0  0  0
 12 13  4  0  0  0  0
 13 14  4  0  0  0  0
 14 15  4  0  0  0  0
 15 16  4  0  0  0  0
 11 16  4  0  0  0  0
M  END
> <activity>
88.2

> <InChiKey>
SESFRYSPDFLNCH-UHFFFAOYSA-N

$$$$

  Mrv2220 08292413132D          

 23 24  0  0  0  0            999 V2000
    0.0000   -4.9500    0.0000 C   0  0  0  0  0  0  0  0  0  0  0  0
    0.7145   -5.3625    0.0000 C   0  0  0  0  0  0  0  0  0  0  0  0
    1.4289   -4.9500    0.0000 C   0  0  0  0  0  0  0  0  0  0  0  0
    2.1434   -5.3625    0.0000 C   0  0  0  0  0  0  0  0  0  0  0  0
    2.8579   -4.9500    0.0000 O   0  0  0  0  0  0  0  0  0  0  0  0
    3.5724   -5.3625    0.0000 C   0  0  0  0  0  0  0  0  0  0  0  0
    3.5724   -6.1875    0.0000 O   0  0  0  0  0  0  0  0  0  0  0  0
    4.2868   -4.9500    0.0000 C   0  0  0  0  0  0  0  0  0  0  0  0
    4.2868   -4.1250    0.0000 C   0  0  0  0  0  0  0  0  0  0  0  0
    5.0013   -3.7125    0.0000 C   0  0  0  0  0  0  0  0  0  0  0  0
    5.7158   -4.1250    0.0000 C   0  0  0  0  0  0  0  0  0  0  0  0
    5.7158   -4.9500    0.0000 C   0  0  0  0  0  0  0  0  0  0  0  0
    5.0013   -5.3625    0.0000 C   0  0  0  0  0  0  0  0  0  0  0  0
    5.0013   -6.1875    0.0000 C   0  0  0  0  0  0  0  0  0  0  0  0
    5.7158   -6.6000    0.0000 O   0  0  0  0  0  0  0  0  0  0  0  0
    4.2868   -6.6000    0.0000 O   0  0  0  0  0  0  0  0  0  0  0  0
    4.2868   -7.4250    0.0000 C   0  0  0  0  0  0  0  0  0  0  0  0
    5.0013   -7.8375    0.0000 C   0  0  0  0  0  0  0  0  0  0  0  0
    5.7158   -7.4250    0.0000 C   0  0  0  0  0  0  0  0  0  0  0  0
    6.4302   -7.8375    0.0000 C   0  0  0  0  0  0  0  0  0  0  0  0
    6.4302   -8.6625    0.0000 C   0  0  0  0  0  0  0  0  0  0  0  0
    5.7158   -9.0750    0.0000 C   0  0  0  0  0  0  0  0  0  0  0  0
    5.0013   -8.6625    0.0000 C   0  0  0  0  0  0  0  0  0  0  0  0
  1  2  1  0  0  0  0
  2  3  1  0  0  0  0
  3  4  1  0  0  0  0
  4  5  1  0  0  0  0
  5  6  1  0  0  0  0
  6  7  2  0  0  0  0
  6  8  1  0  0  0  0
  8  9  4  0  0  0  0
  9 10  4  0  0  0  0
 10 11  4  0  0  0  0
 11 12  4  0  0  0  0
 12 13  4  0  0  0  0
  8 13  4  0  0  0  0
 13 14  1  0  0  0  0
 14 15  2  0  0  0  0
 14 16  1  0  0  0  0
 16 17  1  0  0  0  0
 17 18  1  0  0  0  0
 18 19  4  0  0  0  0
 19 20  4  0  0  0  0
 20 21  4  0  0  0  0
 21 22  4  0  0  0  0
 22 23  4  0  0  0  0
 18 23  4  0  0  0  0
M  END
> <activity>
71.1

> <InChiKey>
IRIAEXORFWYRCZ-UHFFFAOYSA-N

$$$$

  Mrv2220 08292413132D          

 18 19  0  0  0  0            999 V2000
    2.8579    0.0000    0.0000 O   0  0  0  0  0  0  0  0  0  0  0  0
    3.5724   -0.4125    0.0000 C   0  0  0  0  0  0  0  0  0  0  0  0
    3.5724   -1.2375    0.0000 C   0  0  0  0  0  0  0  0  0  0  0  0
    4.2868   -1.6500    0.0000 C   0  0  0  0  0  0  0  0  0  0  0  0
    4.2868   -2.4750    0.0000 C   0  0  0  0  0  0  0  0  0  0  0  0
    5.0013   -2.8875    0.0000 C   0  0  0  0  0  0  0  0  0  0  0  0
    5.0013   -3.7125    0.0000 C   0  0  0  0  0  0  0  0  0  0  0  0
    4.2868   -4.1250    0.0000 C   0  0  0  0  0  0  0  0  0  0  0  0
    3.5724   -3.7125    0.0000 C   0  0  0  0  0  0  0  0  0  0  0  0
    3.5724   -2.8875    0.0000 C   0  0  0  0  0  0  0  0  0  0  0  0
    4.2868    0.0000    0.0000 O   0  0  0  0  0  0  0  0  0  0  0  0
    4.2868    0.8250    0.0000 C   0  0  0  0  0  0  0  0  0  0  0  0
    5.0013    1.2375    0.0000 C   0  0  0  0  0  0  0  0  0  0  0  0
    5.0013    2.0625    0.0000 C   0  0  0  0  0  0  0  0  0  0  0  0
    5.7158    2.4750    0.0000 C   0  0  0  0  0  0  0  0  0  0  0  0
    6.4302    2.0625    0.0000 C   0  0  0  0  0  0  0  0  0  0  0  0
    6.4302    1.2375    0.0000 C   0  0  0  0  0  0  0  0  0  0  0  0
    5.7158    0.8250    0.0000 C   0  0  0  0  0  0  0  0  0  0  0  0
  1  2  2  0  0  0  0
  3  2  1  4  0  0  0
  3  4  2  0  0  0  0
  4  5  1  0  0  0  0
  5  6  4  0  0  0  0
  6  7  4  0  0  0  0
  7  8  4  0  0  0  0
  8  9  4  0  0  0  0
  9 10  4  0  0  0  0
  5 10  4  0  0  0  0
  2 11  1  0  0  0  0
 11 12  1  0  0  0  0
 12 13  1  0  0  0  0
 13 14  4  0  0  0  0
 14 15  4  0  0  0  0
 15 16  4  0  0  0  0
 16 17  4  0  0  0  0
 17 18  4  0  0  0  0
 13 18  4  0  0  0  0
M  END
> <activity>
75.4

> <InChiKey>
NGHOLYJTSCBCGC-UHFFFAOYSA-N

$$$$

  Mrv2220 08292413132D          

 20 20  0  0  0  0            999 V2000
    4.2868   -6.6000    0.0000 C   0  0  0  0  0  0  0  0  0  0  0  0
    5.0013   -7.0125    0.0000 C   0  0  0  0  0  0  0  0  0  0  0  0
    5.7158   -6.6000    0.0000 C   0  0  0  0  0  0  0  0  0  0  0  0
    6.4302   -7.0125    0.0000 C   0  0  0  0  0  0  0  0  0  0  0  0
    7.1447   -6.6000    0.0000 C   0  0  0  0  0  0  0  0  0  0  0  0
    7.8592   -7.0125    0.0000 C   0  0  0  0  0  0  0  0  0  0  0  0
    8.5737   -6.6000    0.0000 C   0  0  0  0  0  0  0  0  0  0  0  0
    9.2881   -7.0125    0.0000 C   0  0  0  0  0  0  0  0  0  0  0  0
   10.0026   -6.6000    0.0000 C   0  0  0  0  0  0  0  0  0  0  0  0
   10.7171   -7.0125    0.0000 C   0  0  0  0  0  0  0  0  0  0  0  0
   11.4315   -6.6000    0.0000 N   0  3  0  0  0  0  0  0  0  0  0  0
   11.8440   -7.3145    0.0000 C   0  0  0  0  0  0  0  0  0  0  0  0
   11.0190   -5.8855    0.0000 C   0  0  0  0  0  0  0  0  0  0  0  0
   12.1460   -6.1875    0.0000 C   0  0  0  0  0  0  0  0  0  0  0  0
   12.8605   -6.6000    0.0000 C   0  0  0  0  0  0  0  0  0  0  0  0
   13.5749   -6.1875    0.0000 C   0  0  0  0  0  0  0  0  0  0  0  0
   14.2894   -6.6000    0.0000 C   0  0  0  0  0  0  0  0  0  0  0  0
   14.2894   -7.4250    0.0000 C   0  0  0  0  0  0  0  0  0  0  0  0
   13.5749   -7.8375    0.0000 C   0  0  0  0  0  0  0  0  0  0  0  0
   12.8605   -7.4250    0.0000 C   0  0  0  0  0  0  0  0  0  0  0  0
  1  2  1  0  0  0  0
  2  3  1  0  0  0  0
  3  4  1  0  0  0  0
  4  5  1  0  0  0  0
  5  6  1  0  0  0  0
  6  7  1  0  0  0  0
  7  8  1  0  0  0  0
  8  9  1  0  0  0  0
  9 10  1  0  0  0  0
 10 11  1  0  0  0  0
 11 12  1  0  0  0  0
 11 13  1  0  0  0  0
 11 14  1  0  0  0  0
 14 15  1  0  0  0  0
 15 16  4  0  0  0  0
 16 17  4  0  0  0  0
 17 18  4  0  0  0  0
 18 19  4  0  0  0  0
 19 20  4  0  0  0  0
 15 20  4  0  0  0  0
M  CHG  1  11   1
M  END
> <activity>
-8.5

> <InChiKey>
UARILQSOMYIQCM-UHFFFAOYSA-N

$$$$

  Mrv2220 08292413132D          

 25 25  0  0  0  0            999 V2000
    3.5724   -8.6625    0.0000 C   0  0  0  0  0  0  0  0  0  0  0  0
    4.2868   -9.0750    0.0000 C   0  0  0  0  0  0  0  0  0  0  0  0
    5.0013   -8.6625    0.0000 C   0  0  0  0  0  0  0  0  0  0  0  0
    5.7158   -9.0750    0.0000 C   0  0  0  0  0  0  0  0  0  0  0  0
    6.4302   -8.6625    0.0000 C   0  0  0  0  0  0  0  0  0  0  0  0
    6.4302   -7.8375    0.0000 C   0  0  0  0  0  0  0  0  0  0  0  0
    7.1447   -7.4250    0.0000 C   0  0  0  0  0  0  0  0  0  0  0  0
    7.1447   -9.0750    0.0000 C   0  0  0  0  0  0  0  0  0  0  0  0
    7.8592   -8.6625    0.0000 O   0  0  0  0  0  0  0  0  0  0  0  0
    8.5737   -9.0750    0.0000 C   0  0  0  0  0  0  0  0  0  0  0  0
    8.5737   -9.9000    0.0000 O   0  0  0  0  0  0  0  0  0  0  0  0
    9.2881   -8.6625    0.0000 C   0  0  0  0  0  0  0  0  0  0  0  0
   10.0026   -9.0750    0.0000 C   0  0  0  0  0  0  0  0  0  0  0  0
   10.7171   -8.6625    0.0000 C   0  0  0  0  0  0  0  0  0  0  0  0
   11.4315   -9.0750    0.0000 C   0  0  0  0  0  0  0  0  0  0  0  0
   12.1460   -8.6625    0.0000 C   0  0  0  0  0  0  0  0  0  0  0  0
   12.1460   -7.8375    0.0000 O   0  0  0  0  0  0  0  0  0  0  0  0
   12.8605   -9.0750    0.0000 O   0  0  0  0  0  0  0  0  0  0  0  0
   13.5749   -8.6625    0.0000 C   0  0  0  0  0  0  0  0  0  0  0  0
   14.2894   -9.0750    0.0000 C   0  0  0  0  0  0  0  0  0  0  0  0
   15.0039   -8.6625    0.0000 C   0  0  0  0  0  0  0  0  0  0  0  0
   15.7184   -9.0750    0.0000 C   0  0  0  0  0  0  0  0  0  0  0  0
   15.7184   -9.9000    0.0000 C   0  0  0  0  0  0  0  0  0  0  0  0
   15.0039  -10.3125    0.0000 C   0  0  0  0  0  0  0  0  0  0  0  0
   14.2894   -9.9000    0.0000 C   0  0  0  0  0  0  0  0  0  0  0  0
  1  2  1  0  0  0  0
  2  3  1  0  0  0  0
  3  4  1  0  0  0  0
  4  5  1  0  0  0  0
  5  6  1  0  0  0  0
  6  7  1  0  0  0  0
  5  8  1  0  0  0  0
  8  9  1  0  0  0  0
  9 10  1  0  0  0  0
 10 11  2  0  0  0  0
 10 12  1  0  0  0  0
 12 13  1  0  0  0  0
 13 14  1  0  0  0  0
 14 15  1  0  0  0  0
 15 16  1  0  0  0  0
 16 17  2  0  0  0  0
 16 18  1  0  0  0  0
 18 19  1  0  0  0  0
 19 20  1  0  0  0  0
 20 21  4  0  0  0  0
 21 22  4  0  0  0  0
 22 23  4  0  0  0  0
 23 24  4  0  0  0  0
 24 25  4  0  0  0  0
 20 25  4  0  0  0  0
M  END
> <activity>
13.5

> <InChiKey>
OOUQSWGHJPCRLI-UHFFFAOYSA-N

$$$$

  Mrv2220 08292413132D          

 28 31  0  0  0  0            999 V2000
   -0.1712   -0.6979    0.0000 O   0  0  0  0  0  0  0  0  0  0  0  0
    0.6538   -0.6979    0.0000 C   0  0  0  0  0  0  0  0  0  0  0  0
    1.1387   -0.0305    0.0000 N   0  0  0  0  0  0  0  0  0  0  0  0
    1.9233   -0.2854    0.0000 C   0  0  0  0  0  0  0  0  0  0  0  0
    2.6378    0.1271    0.0000 C   0  0  0  0  0  0  0  0  0  0  0  0
    3.3523   -0.2854    0.0000 C   0  0  0  0  0  0  0  0  0  0  0  0
    3.3523   -1.1104    0.0000 C   0  0  0  0  0  0  0  0  0  0  0  0
    4.0668   -1.5229    0.0000 S   0  3  0  0  0  0  0  0  0  0  0  0
    4.7812   -1.1104    0.0000 O   0  5  0  0  0  0  0  0  0  0  0  0
    4.0668   -2.3479    0.0000 C   0  0  0  0  0  0  0  0  0  0  0  0
    4.7812   -2.7604    0.0000 C   0  0  0  0  0  0  0  0  0  0  0  0
    4.7812   -3.5854    0.0000 N   0  0  0  0  0  0  0  0  0  0  0  0
    5.4957   -3.9979    0.0000 C   0  0  0  0  0  0  0  0  0  0  0  0
    5.4957   -4.8229    0.0000 C   0  0  0  0  0  0  0  0  0  0  0  0
    4.7812   -5.2354    0.0000 C   0  0  0  0  0  0  0  0  0  0  0  0
    4.7812   -6.0604    0.0000 C   0  0  0  0  0  0  0  0  0  0  0  0
    4.0668   -6.4729    0.0000 C   0  0  0  0  0  0  0  0  0  0  0  0
    4.0668   -7.2979    0.0000 C   0  0  0  0  0  0  0  0  0  0  0  0
    3.3523   -7.7104    0.0000 C   0  0  0  0  0  0  0  0  0  0  0  0
    2.6378   -7.2979    0.0000 C   0  0  0  0  0  0  0  0  0  0  0  0
    1.9233   -7.7104    0.0000 F   0  0  0  0  0  0  0  0  0  0  0  0
    2.6378   -6.4729    0.0000 C   0  0  0  0  0  0  0  0  0  0  0  0
    3.3523   -6.0604    0.0000 C   0  0  0  0  0  0  0  0  0  0  0  0
    4.0668   -4.8229    0.0000 C   0  0  0  0  0  0  0  0  0  0  0  0
    4.0668   -3.9979    0.0000 C   0  0  0  0  0  0  0  0  0  0  0  0
    2.6378   -1.5229    0.0000 C   0  0  0  0  0  0  0  0  0  0  0  0
    1.9233   -1.1104    0.0000 C   0  0  0  0  0  0  0  0  0  0  0  0
    1.1387   -1.3654    0.0000 O   0  0  0  0  0  0  0  0  0  0  0  0
  1  2  2  0  0  0  0
  2  3  4  0  0  0  0
  3  4  4  0  0  0  0
  4  5  4  0  0  0  0
  5  6  4  0  0  0  0
  6  7  4  0  0  0  0
  7  8  1  0  0  0  0
  8  9  1  0  0  0  0
  8 10  1  0  0  0  0
 10 11  1  0  0  0  0
 11 12  1  0  0  0  0
 12 13  1  0  0  0  0
 13 14  1  0  0  0  0
 14 15  1  0  0  0  0
 15 16  1  0  0  0  0
 16 17  1  0  0  0  0
 17 18  4  0  0  0  0
 18 19  4  0  0  0  0
 19 20  4  0  0  0  0
 20 21  1  0  0  0  0
 20 22  4  0  0  0  0
 22 23  4  0  0  0  0
 17 23  4  0  0  0  0
 15 24  1  0  0  0  0
 24 25  1  0  0  0  0
 12 25  1  0  0  0  0
  7 26  4  0  0  0  0
 26 27  4  0  0  0  0
  4 27  4  0  0  0  0
 27 28  4  0  0  0  0
  2 28  4  0  0  0  0
M  CHG  2   8   1   9  -1
M  STY  1   1 DAT
M  SAL   1  1   3
M  SDT   1 MRV_IMPLICIT_H                                        
M  SDD   1     0.5304   -0.4125    DR    ALL  0       0  
M  SED   1 IMPL_H1
M  END
> <activity>
-16.3

> <InChiKey>
FCBQJNCAKZSIAH-UHFFFAOYSA-N

$$$$

  Mrv2220 08292413132D          

 29 31  0  0  0  0            999 V2000
    6.8427   -6.9020    0.0000 C   0  0  0  0  0  0  0  0  0  0  0  0
    6.8427   -6.0770    0.0000 C   0  0  0  0  0  0  0  0  0  0  0  0
    6.1283   -5.6645    0.0000 C   0  0  0  0  0  0  0  0  0  0  0  0
    5.4138   -6.0770    0.0000 C   0  0  0  0  0  0  0  0  0  0  0  0
    4.6993   -5.6645    0.0000 O   0  0  0  0  0  0  0  0  0  0  0  0
    3.9849   -6.0770    0.0000 C   0  0  0  0  0  0  0  0  0  0  0  0
    3.9849   -6.9020    0.0000 O   0  0  0  0  0  0  0  0  0  0  0  0
    3.2704   -5.6645    0.0000 C   0  0  0  0  0  0  0  0  0  0  0  0
    2.4454   -5.6645    0.0000 C   0  0  0  0  0  0  0  0  0  0  0  0
    1.7309   -6.0770    0.0000 C   0  0  0  0  0  0  0  0  0  0  0  0
    1.0164   -5.6645    0.0000 C   0  0  0  0  0  0  0  0  0  0  0  0
    1.0164   -4.8395    0.0000 Cl  0  0  0  0  0  0  0  0  0  0  0  0
    0.3020   -6.0770    0.0000 C   0  0  0  0  0  0  0  0  0  0  0  0
   -0.4125   -6.4895    0.0000 F   0  0  0  0  0  0  0  0  0  0  0  0
    0.7145   -6.7914    0.0000 F   0  0  0  0  0  0  0  0  0  0  0  0
   -0.1105   -5.3625    0.0000 F   0  0  0  0  0  0  0  0  0  0  0  0
    2.8579   -4.9500    0.0000 C   0  0  0  0  0  0  0  0  0  0  0  0
    2.3847   -4.2742    0.0000 C   0  0  0  0  0  0  0  0  0  0  0  0
    3.3311   -4.2742    0.0000 C   0  0  0  0  0  0  0  0  0  0  0  0
    6.1283   -4.8395    0.0000 C   0  0  0  0  0  0  0  0  0  0  0  0
    6.8427   -4.4270    0.0000 C   0  0  0  0  0  0  0  0  0  0  0  0
    7.5572   -4.8395    0.0000 C   0  0  0  0  0  0  0  0  0  0  0  0
    7.5572   -5.6645    0.0000 C   0  0  0  0  0  0  0  0  0  0  0  0
    8.2717   -6.0770    0.0000 C   0  0  0  0  0  0  0  0  0  0  0  0
    8.9862   -5.6645    0.0000 C   0  0  0  0  0  0  0  0  0  0  0  0
    9.7006   -6.0770    0.0000 C   0  0  0  0  0  0  0  0  0  0  0  0
    9.7006   -6.9020    0.0000 C   0  0  0  0  0  0  0  0  0  0  0  0
    8.9862   -7.3145    0.0000 C   0  0  0  0  0  0  0  0  0  0  0  0
    8.2717   -6.9020    0.0000 C   0  0  0  0  0  0  0  0  0  0  0  0
  1  2  1  0  0  0  0
  2  3  4  0  0  0  0
  3  4  1  0  0  0  0
  4  5  1  0  0  0  0
  5  6  1  0  0  0  0
  6  7  2  0  0  0  0
  6  8  1  0  0  0  0
  8  9  1  0  0  0  0
 10  9  1  4  0  0  0
 10 11  2  0  0  0  0
 11 12  1  0  0  0  0
 11 13  1  0  0  0  0
 13 14  1  0  0  0  0
 13 15  1  0  0  0  0
 13 16  1  0  0  0  0
  9 17  1  0  0  0  0
  8 17  1  0  0  0  0
 17 18  1  0  0  0  0
 17 19  1  0  0  0  0
  3 20  4  0  0  0  0
 20 21  4  0  0  0  0
 21 22  4  0  0  0  0
 22 23  4  0  0  0  0
  2 23  4  0  0  0  0
 23 24  1  0  0  0  0
 24 25  4  0  0  0  0
 25 26  4  0  0  0  0
 26 27  4  0  0  0  0
 27 28  4  0  0  0  0
 28 29  4  0  0  0  0
 24 29  4  0  0  0  0
M  END
> <activity>
54.8

> <InChiKey>
OMFRMAHOUUJSGP-UHFFFAOYSA-N

$$$$

  Mrv2220 08292413132D          

 11 10  0  0  0  0            999 V2000
    0.4125    3.5724    0.0000 C   0  0  0  0  0  0  0  0  0  0  0  0
    0.8250    2.8579    0.0000 C   0  0  0  0  0  0  0  0  0  0  0  0
    1.6500    2.8579    0.0000 C   0  0  0  0  0  0  0  0  0  0  0  0
    0.4125    2.1434    0.0000 O   0  0  0  0  0  0  0  0  0  0  0  0
    0.8250    1.4289    0.0000 P   0  0  0  0  0  0  0  0  0  0  0  0
    0.1105    1.0164    0.0000 C   0  0  0  0  0  0  0  0  0  0  0  0
    1.5395    1.8414    0.0000 O   0  0  0  0  0  0  0  0  0  0  0  0
    1.2375    0.7145    0.0000 O   0  0  0  0  0  0  0  0  0  0  0  0
    0.8250    0.0000    0.0000 C   0  0  0  0  0  0  0  0  0  0  0  0
    1.2375   -0.7145    0.0000 C   0  0  0  0  0  0  0  0  0  0  0  0
    0.0000    0.0000    0.0000 C   0  0  0  0  0  0  0  0  0  0  0  0
  1  2  1  0  0  0  0
  2  3  1  0  0  0  0
  2  4  1  0  0  0  0
  4  5  1  0  0  0  0
  5  6  1  0  0  0  0
  5  7  2  0  0  0  0
  5  8  1  0  0  0  0
  8  9  1  0  0  0  0
  9 10  1  0  0  0  0
  9 11  1  0  0  0  0
M  END
> <activity>
10.9

> <InChiKey>
WOAFDHWYKSOANX-UHFFFAOYSA-N

$$$$

  Mrv2220 08292413132D          

 24 23  0  0  0  0            999 V2000
    0.1401    8.3309    0.0000 C   0  0  0  0  0  0  0  0  0  0  0  0
    0.1401    7.5059    0.0000 C   0  0  0  0  0  0  0  0  0  0  0  0
    0.8546    7.0934    0.0000 C   0  0  0  0  0  0  0  0  0  0  0  0
    0.8546    6.2684    0.0000 C   0  0  0  0  0  0  0  0  0  0  0  0
    1.5691    5.8559    0.0000 C   0  0  0  0  0  0  0  0  0  0  0  0
    2.2836    6.2684    0.0000 C   0  0  0  0  0  0  0  0  0  0  0  0
    2.9980    5.8559    0.0000 C   0  0  0  0  0  0  0  0  0  0  0  0
    1.5691    5.0309    0.0000 C   0  0  0  0  0  0  0  0  0  0  0  0
    2.2836    4.6184    0.0000 O   0  0  0  0  0  0  0  0  0  0  0  0
    2.2836    3.7934    0.0000 C   0  0  0  0  0  0  0  0  0  0  0  0
    1.5691    3.3809    0.0000 O   0  0  0  0  0  0  0  0  0  0  0  0
    2.9980    3.3809    0.0000 C   0  0  0  0  0  0  0  0  0  0  0  0
    2.9980    2.5559    0.0000 C   0  0  0  0  0  0  0  0  0  0  0  0
    3.7125    2.1434    0.0000 C   0  0  0  0  0  0  0  0  0  0  0  0
    3.7125    1.3184    0.0000 O   0  0  0  0  0  0  0  0  0  0  0  0
    4.4270    2.5559    0.0000 O   0  0  0  0  0  0  0  0  0  0  0  0
    5.1414    2.1434    0.0000 C   0  0  0  0  0  0  0  0  0  0  0  0
    5.8559    2.5559    0.0000 C   0  0  0  0  0  0  0  0  0  0  0  0
    5.8559    3.3809    0.0000 C   0  0  0  0  0  0  0  0  0  0  0  0
    6.5704    3.7934    0.0000 C   0  0  0  0  0  0  0  0  0  0  0  0
    6.5704    2.1434    0.0000 C   0  0  0  0  0  0  0  0  0  0  0  0
    7.2849    2.5559    0.0000 C   0  0  0  0  0  0  0  0  0  0  0  0
    7.9993    2.1434    0.0000 C   0  0  0  0  0  0  0  0  0  0  0  0
    8.7138    2.5559    0.0000 C   0  0  0  0  0  0  0  0  0  0  0  0
  1  2  1  0  0  0  0
  2  3  1  0  0  0  0
  3  4  1  0  0  0  0
  4  5  1  0  0  0  0
  5  6  1  0  0  0  0
  6  7  1  0  0  0  0
  5  8  1  0  0  0  0
  8  9  1  0  0  0  0
  9 10  1  0  0  0  0
 10 11  2  0  0  0  0
 12 10  1  4  0  0  0
 12 13  2  0  0  0  0
 13 14  1  0  0  0  0
 14 15  2  0  0  0  0
 14 16  1  0  0  0  0
 16 17  1  0  0  0  0
 17 18  1  0  0  0  0
 18 19  1  0  0  0  0
 19 20  1  0  0  0  0
 18 21  1  0  0  0  0
 21 22  1  0  0  0  0
 22 23  1  0  0  0  0
 23 24  1  0  0  0  0
M  END
> <activity>
14.7

> <InChiKey>
ROPXFXOUUANXRR-UHFFFAOYSA-N

$$$$

  Mrv2220 08292413132D          

 32 32  0  0  0  0            999 V2000
   -2.1434   -5.3625    0.0000 C   0  0  0  0  0  0  0  0  0  0  0  0
   -1.4289   -4.9500    0.0000 C   0  0  0  0  0  0  0  0  0  0  0  0
   -1.4289   -4.1250    0.0000 C   0  0  0  0  0  0  0  0  0  0  0  0
   -0.7145   -3.7125    0.0000 C   0  0  0  0  0  0  0  0  0  0  0  0
   -0.7145   -2.8875    0.0000 C   0  0  0  0  0  0  0  0  0  0  0  0
   -1.4289   -2.4750    0.0000 C   0  0  0  0  0  0  0  0  0  0  0  0
   -1.4289   -1.6500    0.0000 C   0  0  0  0  0  0  0  0  0  0  0  0
    0.0000   -2.4750    0.0000 C   0  0  0  0  0  0  0  0  0  0  0  0
    0.0000   -1.6500    0.0000 O   0  0  0  0  0  0  0  0  0  0  0  0
    0.7145   -1.2375    0.0000 C   0  0  0  0  0  0  0  0  0  0  0  0
    1.4289   -1.6500    0.0000 O   0  0  0  0  0  0  0  0  0  0  0  0
    0.7145   -0.4125    0.0000 C   0  0  0  0  0  0  0  0  0  0  0  0
    0.0000    0.0000    0.0000 C   0  0  0  0  0  0  0  0  0  0  0  0
   -0.7145   -0.4125    0.0000 Br  0  0  0  0  0  0  0  0  0  0  0  0
    0.0000    0.8250    0.0000 C   0  0  0  0  0  0  0  0  0  0  0  0
   -0.7145    1.2375    0.0000 Br  0  0  0  0  0  0  0  0  0  0  0  0
    0.7145    1.2375    0.0000 C   0  0  0  0  0  0  0  0  0  0  0  0
    0.7145    2.0625    0.0000 Br  0  0  0  0  0  0  0  0  0  0  0  0
    1.4289    0.8250    0.0000 C   0  0  0  0  0  0  0  0  0  0  0  0
    2.1434    1.2375    0.0000 Br  0  0  0  0  0  0  0  0  0  0  0  0
    1.4289    0.0000    0.0000 C   0  0  0  0  0  0  0  0  0  0  0  0
    2.1434   -0.4125    0.0000 C   0  0  0  0  0  0  0  0  0  0  0  0
    2.1434   -1.2375    0.0000 O   0  0  0  0  0  0  0  0  0  0  0  0
    2.8579    0.0000    0.0000 O   0  0  0  0  0  0  0  0  0  0  0  0
    3.5724   -0.4125    0.0000 C   0  0  0  0  0  0  0  0  0  0  0  0
    4.2868    0.0000    0.0000 C   0  0  0  0  0  0  0  0  0  0  0  0
    4.2868    0.8250    0.0000 C   0  0  0  0  0  0  0  0  0  0  0  0
    5.0013    1.2375    0.0000 C   0  0  0  0  0  0  0  0  0  0  0  0
    5.0013   -0.4125    0.0000 C   0  0  0  0  0  0  0  0  0  0  0  0
    5.7158    0.0000    0.0000 C   0  0  0  0  0  0  0  0  0  0  0  0
    6.4302   -0.4125    0.0000 C   0  0  0  0  0  0  0  0  0  0  0  0
    7.1447    0.0000    0.0000 C   0  0  0  0  0  0  0  0  0  0  0  0
  1  2  1  0  0  0  0
  2  3  1  0  0  0  0
  3  4  1  0  0  0  0
  4  5  1  0  0  0  0
  5  6  1  0  0  0  0
  6  7  1  0  0  0  0
  5  8  1  0  0  0  0
  8  9  1  0  0  0  0
  9 10  1  0  0  0  0
 10 11  2  0  0  0  0
 10 12  1  0  0  0  0
 12 13  4  0  0  0  0
 13 14  1  0  0  0  0
 13 15  4  0  0  0  0
 15 16  1  0  0  0  0
 15 17  4  0  0  0  0
 17 18  1  0  0  0  0
 17 19  4  0  0  0  0
 19 20  1  0  0  0  0
 19 21  4  0  0  0  0
 12 21  4  0  0  0  0
 21 22  1  0  0  0  0
 22 23  2  0  0  0  0
 22 24  1  0  0  0  0
 24 25  1  0  0  0  0
 25 26  1  0  0  0  0
 26 27  1  0  0  0  0
 27 28  1  0  0  0  0
 26 29  1  0  0  0  0
 29 30  1  0  0  0  0
 30 31  1  0  0  0  0
 31 32  1  0  0  0  0
M  END
> <activity>
32.4

> <InChiKey>
UUEDINPOVKWVAZ-UHFFFAOYSA-N

$$$$

  Mrv2220 08292413132D          

 26 25  0  0  0  0            999 V2000
    8.4711    5.7158    0.0000 C   0  0  0  0  0  0  0  0  0  0  0  0
    9.1855    6.1283    0.0000 C   0  0  0  0  0  0  0  0  0  0  0  0
    9.9000    5.7158    0.0000 C   0  0  0  0  0  0  0  0  0  0  0  0
   10.6145    6.1283    0.0000 C   0  0  0  0  0  0  0  0  0  0  0  0
   11.3289    5.7158    0.0000 C   0  0  0  0  0  0  0  0  0  0  0  0
   11.3289    4.8908    0.0000 C   0  0  0  0  0  0  0  0  0  0  0  0
   12.0434    4.4783    0.0000 C   0  0  0  0  0  0  0  0  0  0  0  0
   12.0434    6.1283    0.0000 C   0  0  0  0  0  0  0  0  0  0  0  0
   12.7579    5.7158    0.0000 O   0  0  0  0  0  0  0  0  0  0  0  0
   13.4724    6.1283    0.0000 C   0  0  0  0  0  0  0  0  0  0  0  0
   13.4724    6.9533    0.0000 O   0  0  0  0  0  0  0  0  0  0  0  0
   14.1868    5.7158    0.0000 C   0  0  0  0  0  0  0  0  0  0  0  0
   14.9013    6.1283    0.0000 C   0  0  0  0  0  0  0  0  0  0  0  0
   15.6158    5.7158    0.0000 C   0  0  0  0  0  0  0  0  0  0  0  0
   16.3302    6.1283    0.0000 C   0  0  0  0  0  0  0  0  0  0  0  0
   17.0447    5.7158    0.0000 C   0  0  0  0  0  0  0  0  0  0  0  0
   17.0447    4.8908    0.0000 O   0  0  0  0  0  0  0  0  0  0  0  0
   17.7592    6.1283    0.0000 O   0  0  0  0  0  0  0  0  0  0  0  0
   18.4737    5.7158    0.0000 C   0  0  0  0  0  0  0  0  0  0  0  0
   19.1881    6.1283    0.0000 C   0  0  0  0  0  0  0  0  0  0  0  0
   19.1881    6.9533    0.0000 C   0  0  0  0  0  0  0  0  0  0  0  0
   19.9026    7.3658    0.0000 C   0  0  0  0  0  0  0  0  0  0  0  0
   19.9026    5.7158    0.0000 C   0  0  0  0  0  0  0  0  0  0  0  0
   20.6171    6.1283    0.0000 C   0  0  0  0  0  0  0  0  0  0  0  0
   21.3315    5.7158    0.0000 C   0  0  0  0  0  0  0  0  0  0  0  0
   22.0460    6.1283    0.0000 C   0  0  0  0  0  0  0  0  0  0  0  0
  1  2  1  0  0  0  0
  2  3  1  0  0  0  0
  3  4  1  0  0  0  0
  4  5  1  0  0  0  0
  5  6  1  0  0  0  0
  6  7  1  0  0  0  0
  5  8  1  0  0  0  0
  8  9  1  0  0  0  0
  9 10  1  0  0  0  0
 10 11  2  0  0  0  0
 10 12  1  0  0  0  0
 12 13  1  0  0  0  0
 13 14  1  0  0  0  0
 14 15  1  0  0  0  0
 15 16  1  0  0  0  0
 16 17  2  0  0  0  0
 16 18  1  0  0  0  0
 18 19  1  0  0  0  0
 19 20  1  0  0  0  0
 20 21  1  0  0  0  0
 21 22  1  0  0  0  0
 20 23  1  0  0  0  0
 23 24  1  0  0  0  0
 24 25  1  0  0  0  0
 25 26  1  0  0  0  0
M  END
> <activity>
-0.4

> <InChiKey>
SAOKZLXYCUGLFA-UHFFFAOYSA-N

$$$$

  Mrv2220 08292413132D          

 17 18  0  0  0  0            999 V2000
    1.5395   -1.2375    0.0000 C   0  0  0  0  0  0  0  0  0  0  0  0
    0.7145   -1.2375    0.0000 C   0  0  0  0  0  0  0  0  0  0  0  0
   -0.1105   -1.2375    0.0000 C   0  0  0  0  0  0  0  0  0  0  0  0
    0.7145   -2.0625    0.0000 C   0  0  0  0  0  0  0  0  0  0  0  0
    1.4289   -2.4750    0.0000 C   0  0  0  0  0  0  0  0  0  0  0  0
    1.4289   -3.3000    0.0000 C   0  0  0  0  0  0  0  0  0  0  0  0
    0.7145   -3.7125    0.0000 C   0  0  0  0  0  0  0  0  0  0  0  0
    0.7145   -4.5375    0.0000 O   0  0  0  0  0  0  0  0  0  0  0  0
    0.0000   -3.3000    0.0000 C   0  0  0  0  0  0  0  0  0  0  0  0
    0.0000   -2.4750    0.0000 C   0  0  0  0  0  0  0  0  0  0  0  0
    0.7145   -0.4125    0.0000 C   0  0  0  0  0  0  0  0  0  0  0  0
    0.0000    0.0000    0.0000 C   0  0  0  0  0  0  0  0  0  0  0  0
    0.0000    0.8250    0.0000 C   0  0  0  0  0  0  0  0  0  0  0  0
    0.7145    1.2375    0.0000 C   0  0  0  0  0  0  0  0  0  0  0  0
    0.7145    2.0625    0.0000 O   0  0  0  0  0  0  0  0  0  0  0  0
    1.4289    0.8250    0.0000 C   0  0  0  0  0  0  0  0  0  0  0  0
    1.4289   -0.0000    0.0000 C   0  0  0  0  0  0  0  0  0  0  0  0
  1  2  1  0  0  0  0
  2  3  1  0  0  0  0
  2  4  1  0  0  0  0
  4  5  4  0  0  0  0
  5  6  4  0  0  0  0
  6  7  4  0  0  0  0
  7  8  1  0  0  0  0
  7  9  4  0  0  0  0
  9 10  4  0  0  0  0
  4 10  4  0  0  0  0
  2 11  1  0  0  0  0
 11 12  4  0  0  0  0
 12 13  4  0  0  0  0
 13 14  4  0  0  0  0
 14 15  1  0  0  0  0
 14 16  4  0  0  0  0
 16 17  4  0  0  0  0
 11 17  4  0  0  0  0
M  END
> <activity>
96.0

> <InChiKey>
IISBACLAFKSPIT-UHFFFAOYSA-N

$$$$

  Mrv2220 08292413132D          

 25 28  0  0  0  0            999 V2000
    1.5395   -1.2375    0.0000 C   0  0  0  0  0  0  0  0  0  0  0  0
    0.7145   -1.2375    0.0000 C   0  0  0  0  0  0  0  0  0  0  0  0
   -0.1105   -1.2375    0.0000 C   0  0  0  0  0  0  0  0  0  0  0  0
    0.7145   -2.0625    0.0000 C   0  0  0  0  0  0  0  0  0  0  0  0
    1.4289   -2.4750    0.0000 C   0  0  0  0  0  0  0  0  0  0  0  0
    1.4289   -3.3000    0.0000 C   0  0  0  0  0  0  0  0  0  0  0  0
    0.7145   -3.7125    0.0000 C   0  0  0  0  0  0  0  0  0  0  0  0
    0.7145   -4.5375    0.0000 O   0  0  0  0  0  0  0  0  0  0  0  0
    0.0000   -4.9500    0.0000 C   0  0  0  0  0  0  0  0  0  0  0  0
    0.0000   -5.7750    0.0000 C   0  0  0  0  0  0  0  0  0  0  0  0
    0.4125   -6.4895    0.0000 C   0  0  0  0  0  0  0  0  0  0  0  0
   -0.4125   -6.4895    0.0000 O   0  0  0  0  0  0  0  0  0  0  0  0
    0.0000   -3.3000    0.0000 C   0  0  0  0  0  0  0  0  0  0  0  0
    0.0000   -2.4750    0.0000 C   0  0  0  0  0  0  0  0  0  0  0  0
    0.7145   -0.4125    0.0000 C   0  0  0  0  0  0  0  0  0  0  0  0
    0.0000    0.0000    0.0000 C   0  0  0  0  0  0  0  0  0  0  0  0
    0.0000    0.8250    0.0000 C   0  0  0  0  0  0  0  0  0  0  0  0
    0.7145    1.2375    0.0000 C   0  0  0  0  0  0  0  0  0  0  0  0
    0.7145    2.0625    0.0000 O   0  0  0  0  0  0  0  0  0  0  0  0
    0.0000    2.4750    0.0000 C   0  0  0  0  0  0  0  0  0  0  0  0
    0.0000    3.3000    0.0000 C   0  0  0  0  0  0  0  0  0  0  0  0
   -0.4125    4.0145    0.0000 C   0  0  0  0  0  0  0  0  0  0  0  0
    0.4125    4.0145    0.0000 O   0  0  0  0  0  0  0  0  0  0  0  0
    1.4289    0.8250    0.0000 C   0  0  0  0  0  0  0  0  0  0  0  0
    1.4289   -0.0000    0.0000 C   0  0  0  0  0  0  0  0  0  0  0  0
  1  2  1  0  0  0  0
  2  3  1  0  0  0  0
  2  4  1  0  0  0  0
  4  5  4  0  0  0  0
  5  6  4  0  0  0  0
  6  7  4  0  0  0  0
  7  8  1  0  0  0  0
  8  9  1  0  0  0  0
  9 10  1  0  0  0  0
 10 11  1  0  0  0  0
 11 12  1  0  0  0  0
 10 12  1  0  0  0  0
  7 13  4  0  0  0  0
 13 14  4  0  0  0  0
  4 14  4  0  0  0  0
  2 15  1  0  0  0  0
 15 16  4  0  0  0  0
 16 17  4  0  0  0  0
 17 18  4  0  0  0  0
 18 19  1  0  0  0  0
 19 20  1  0  0  0  0
 20 21  1  0  0  0  0
 21 22  1  0  0  0  0
 22 23  1  0  0  0  0
 21 23  1  0  0  0  0
 18 24  4  0  0  0  0
 24 25  4  0  0  0  0
 15 25  4  0  0  0  0
M  END
> <activity>
31.9

> <InChiKey>
LCFVJGUPQDGYKZ-UHFFFAOYSA-N

$$$$

  Mrv2220 08292413132D          

 23 24  0  0  0  0            999 V2000
    0.7145   -1.2375    0.0000 O   0  0  0  0  0  0  0  0  0  0  0  0
    0.7145   -2.0625    0.0000 C   0  0  0  0  0  0  0  0  0  0  0  0
    1.4289   -2.4750    0.0000 C   0  0  0  0  0  0  0  0  0  0  0  0
    1.4289   -3.3000    0.0000 C   0  0  0  0  0  0  0  0  0  0  0  0
    0.7145   -3.7125    0.0000 C   0  0  0  0  0  0  0  0  0  0  0  0
    0.7145   -4.5375    0.0000 C   0  0  0  0  0  0  0  0  0  0  0  0
    0.7145   -5.3625    0.0000 C   0  0  0  0  0  0  0  0  0  0  0  0
    1.4289   -5.7750    0.0000 C   0  0  0  0  0  0  0  0  0  0  0  0
    1.4289   -6.6000    0.0000 C   0  0  0  0  0  0  0  0  0  0  0  0
    0.7145   -7.0125    0.0000 C   0  0  0  0  0  0  0  0  0  0  0  0
    0.7145   -7.8375    0.0000 O   0  0  0  0  0  0  0  0  0  0  0  0
   -0.0000   -6.6000    0.0000 C   0  0  0  0  0  0  0  0  0  0  0  0
   -0.0000   -5.7750    0.0000 C   0  0  0  0  0  0  0  0  0  0  0  0
   -0.1105   -4.5375    0.0000 C   0  0  0  0  0  0  0  0  0  0  0  0
   -0.9355   -4.5375    0.0000 F   0  0  0  0  0  0  0  0  0  0  0  0
   -0.1105   -5.3625    0.0000 F   0  0  0  0  0  0  0  0  0  0  0  0
   -0.1105   -3.7125    0.0000 F   0  0  0  0  0  0  0  0  0  0  0  0
    1.5395   -4.5375    0.0000 C   0  0  0  0  0  0  0  0  0  0  0  0
    2.3645   -4.5375    0.0000 F   0  0  0  0  0  0  0  0  0  0  0  0
    1.5395   -5.3625    0.0000 F   0  0  0  0  0  0  0  0  0  0  0  0
    1.5395   -3.7125    0.0000 F   0  0  0  0  0  0  0  0  0  0  0  0
    0.0000   -3.3000    0.0000 C   0  0  0  0  0  0  0  0  0  0  0  0
    0.0000   -2.4750    0.0000 C   0  0  0  0  0  0  0  0  0  0  0  0
  1  2  1  0  0  0  0
  2  3  4  0  0  0  0
  3  4  4  0  0  0  0
  4  5  4  0  0  0  0
  5  6  1  0  0  0  0
  6  7  1  0  0  0  0
  7  8  4  0  0  0  0
  8  9  4  0  0  0  0
  9 10  4  0  0  0  0
 10 11  1  0  0  0  0
 10 12  4  0  0  0  0
 12 13  4  0  0  0  0
  7 13  4  0  0  0  0
  6 14  1  0  0  0  0
 14 15  1  0  0  0  0
 14 16  1  0  0  0  0
 14 17  1  0  0  0  0
  6 18  1  0  0  0  0
 18 19  1  0  0  0  0
 18 20  1  0  0  0  0
 18 21  1  0  0  0  0
  5 22  4  0  0  0  0
 22 23  4  0  0  0  0
  2 23  4  0  0  0  0
M  END
> <activity>
100.7

> <InChiKey>
ZFVMWEVVKGLCIJ-UHFFFAOYSA-N

$$$$

  Mrv2220 08292413132D          

 18 19  0  0  0  0            999 V2000
   -0.5230   -0.5230    0.0000 C   0  0  0  0  0  0  0  0  0  0  0  0
   -0.1105   -1.2375    0.0000 C   0  0  0  0  0  0  0  0  0  0  0  0
    0.7145   -1.2375    0.0000 C   0  0  0  0  0  0  0  0  0  0  0  0
    1.5395   -1.2375    0.0000 C   0  0  0  0  0  0  0  0  0  0  0  0
    0.7145   -2.0625    0.0000 C   0  0  0  0  0  0  0  0  0  0  0  0
    1.4289   -2.4750    0.0000 C   0  0  0  0  0  0  0  0  0  0  0  0
    1.4289   -3.3000    0.0000 C   0  0  0  0  0  0  0  0  0  0  0  0
    0.7145   -3.7125    0.0000 C   0  0  0  0  0  0  0  0  0  0  0  0
    0.7145   -4.5375    0.0000 O   0  0  0  0  0  0  0  0  0  0  0  0
    0.0000   -3.3000    0.0000 C   0  0  0  0  0  0  0  0  0  0  0  0
    0.0000   -2.4750    0.0000 C   0  0  0  0  0  0  0  0  0  0  0  0
    0.7145   -0.4125    0.0000 C   0  0  0  0  0  0  0  0  0  0  0  0
    0.0000    0.0000    0.0000 C   0  0  0  0  0  0  0  0  0  0  0  0
    0.0000    0.8250    0.0000 C   0  0  0  0  0  0  0  0  0  0  0  0
    0.7145    1.2375    0.0000 C   0  0  0  0  0  0  0  0  0  0  0  0
    0.7145    2.0625    0.0000 O   0  0  0  0  0  0  0  0  0  0  0  0
    1.4289    0.8250    0.0000 C   0  0  0  0  0  0  0  0  0  0  0  0
    1.4289   -0.0000    0.0000 C   0  0  0  0  0  0  0  0  0  0  0  0
  1  2  1  0  0  0  0
  2  3  1  0  0  0  0
  3  4  1  0  0  0  0
  3  5  1  0  0  0  0
  5  6  4  0  0  0  0
  6  7  4  0  0  0  0
  7  8  4  0  0  0  0
  8  9  1  0  0  0  0
  8 10  4  0  0  0  0
 10 11  4  0  0  0  0
  5 11  4  0  0  0  0
  3 12  1  0  0  0  0
 12 13  4  0  0  0  0
 13 14  4  0  0  0  0
 14 15  4  0  0  0  0
 15 16  1  0  0  0  0
 15 17  4  0  0  0  0
 17 18  4  0  0  0  0
 12 18  4  0  0  0  0
M  END
> <activity>
95.2

> <InChiKey>
HTVITOHKHWFJKO-UHFFFAOYSA-N

$$$$

  Mrv2220 08292413132D          

  4  3  0  0  0  0            999 V2000
    1.2375    0.7145    0.0000 O   0  0  0  0  0  0  0  0  0  0  0  0
    0.8250    0.0000    0.0000 B   0  0  0  0  0  0  0  0  0  0  0  0
    1.2375   -0.7145    0.0000 O   0  0  0  0  0  0  0  0  0  0  0  0
    0.0000    0.0000    0.0000 O   0  0  0  0  0  0  0  0  0  0  0  0
  1  2  1  0  0  0  0
  2  3  1  0  0  0  0
  2  4  1  0  0  0  0
M  END
> <activity>
-4.8

> <InChiKey>
KGBXLFKZBHKPEV-UHFFFAOYSA-N

$$$$

  Mrv2220 08292413132D          

 23 25  0  0  0  0            999 V2000
    0.0000   -1.6500    0.0000 O   0  0  0  0  0  0  0  0  0  0  0  0
    0.7145   -1.2375    0.0000 C   0  0  0  0  0  0  0  0  0  0  0  0
    1.4289   -1.6500    0.0000 N   0  0  0  0  0  0  0  0  0  0  0  0
    1.4289   -2.4750    0.0000 C   0  0  0  0  0  0  0  0  0  0  0  0
    0.7145   -2.8875    0.0000 C   0  0  0  0  0  0  0  0  0  0  0  0
    0.7145   -3.7125    0.0000 C   0  0  0  0  0  0  0  0  0  0  0  0
    1.4289   -4.1250    0.0000 C   0  0  0  0  0  0  0  0  0  0  0  0
    2.1434   -3.7125    0.0000 C   0  0  0  0  0  0  0  0  0  0  0  0
    2.1434   -2.8875    0.0000 C   0  0  0  0  0  0  0  0  0  0  0  0
    2.8579   -2.4750    0.0000 C   0  0  0  0  0  0  0  0  0  0  0  0
    2.8579   -1.6500    0.0000 C   0  0  0  0  0  0  0  0  0  0  0  0
    3.5724   -1.2375    0.0000 C   0  0  0  0  0  0  0  0  0  0  0  0
    4.2868   -1.6500    0.0000 C   0  0  0  0  0  0  0  0  0  0  0  0
    5.0013   -1.2375    0.0000 Cl  0  0  0  0  0  0  0  0  0  0  0  0
    4.2868   -2.4750    0.0000 C   0  0  0  0  0  0  0  0  0  0  0  0
    3.5724   -2.8875    0.0000 C   0  0  0  0  0  0  0  0  0  0  0  0
    0.7145   -0.4125    0.0000 C   0  0  0  0  0  0  0  0  0  0  0  0
    0.0000    0.0000    0.0000 C   0  0  0  0  0  0  0  0  0  0  0  0
    0.0000    0.8250    0.0000 C   0  0  0  0  0  0  0  0  0  0  0  0
    0.7145    1.2375    0.0000 C   0  0  0  0  0  0  0  0  0  0  0  0
    1.4289    0.8250    0.0000 N   0  0  0  0  0  0  0  0  0  0  0  0
    1.4289    0.0000    0.0000 C   0  0  0  0  0  0  0  0  0  0  0  0
    2.1434   -0.4125    0.0000 Cl  0  0  0  0  0  0  0  0  0  0  0  0
  1  2  2  0  0  0  0
  2  3  1  0  0  0  0
  3  4  1  0  0  0  0
  4  5  4  0  0  0  0
  5  6  4  0  0  0  0
  6  7  4  0  0  0  0
  7  8  4  0  0  0  0
  8  9  4  0  0  0  0
  4  9  4  0  0  0  0
  9 10  1  0  0  0  0
 10 11  4  0  0  0  0
 11 12  4  0  0  0  0
 12 13  4  0  0  0  0
 13 14  1  0  0  0  0
 13 15  4  0  0  0  0
 15 16  4  0  0  0  0
 10 16  4  0  0  0  0
  2 17  1  0  0  0  0
 17 18  4  0  0  0  0
 18 19  4  0  0  0  0
 19 20  4  0  0  0  0
 20 21  4  0  0  0  0
 21 22  4  0  0  0  0
 17 22  4  0  0  0  0
 22 23  1  0  0  0  0
M  END
> <activity>
29.3

> <InChiKey>
WYEMLYFITZORAB-UHFFFAOYSA-N

$$$$

  Mrv2220 08292413132D          

 14 14  0  0  0  0            999 V2000
    0.0000    3.3000    0.0000 C   0  0  0  0  0  0  0  0  0  0  0  0
    0.0000    2.4750    0.0000 C   0  0  0  0  0  0  0  0  0  0  0  0
    0.7145    2.0625    0.0000 C   0  0  0  0  0  0  0  0  0  0  0  0
    1.4289    2.4750    0.0000 C   0  0  0  0  0  0  0  0  0  0  0  0
    0.7145    1.2375    0.0000 N   0  0  0  0  0  0  0  0  0  0  0  0
    1.4289    0.8250    0.0000 C   0  0  0  0  0  0  0  0  0  0  0  0
    2.1434    1.2375    0.0000 O   0  0  0  0  0  0  0  0  0  0  0  0
    1.4289   -0.0000    0.0000 N   0  0  0  0  0  0  0  0  0  0  0  0
    0.7145   -0.4125    0.0000 C   0  0  0  0  0  0  0  0  0  0  0  0
    0.7145   -1.2375    0.0000 C   0  0  0  0  0  0  0  0  0  0  0  0
    0.0000    0.0000    0.0000 C   0  0  0  0  0  0  0  0  0  0  0  0
   -0.7145   -0.4125    0.0000 Br  0  0  0  0  0  0  0  0  0  0  0  0
    0.0000    0.8250    0.0000 C   0  0  0  0  0  0  0  0  0  0  0  0
   -0.7145    1.2375    0.0000 O   0  0  0  0  0  0  0  0  0  0  0  0
  1  2  1  0  0  0  0
  2  3  1  0  0  0  0
  3  4  1  0  0  0  0
  3  5  1  0  0  0  0
  5  6  4  0  0  0  0
  6  7  2  0  0  0  0
  6  8  4  0  0  0  0
  8  9  4  0  0  0  0
  9 10  1  0  0  0  0
  9 11  4  0  0  0  0
 11 12  1  0  0  0  0
 11 13  4  0  0  0  0
  5 13  4  0  0  0  0
 13 14  2  0  0  0  0
M  STY  1   1 DAT
M  SAL   1  1   8
M  SDT   1 MRV_IMPLICIT_H                                        
M  SDD   1     0.5304   -0.4125    DR    ALL  0       0  
M  SED   1 IMPL_H1
M  END
> <activity>
22.6

> <InChiKey>
CTSLUCNDVMMDHG-UHFFFAOYSA-N

$$$$

  Mrv2220 08292413132D          

 11 11  0  0  0  0            999 V2000
    0.7145    2.8875    0.0000 N   0  0  0  0  0  0  0  0  0  0  0  0
    0.7145    2.0625    0.0000 C   0  0  0  0  0  0  0  0  0  0  0  0
    0.7145    1.2375    0.0000 C   0  0  0  0  0  0  0  0  0  0  0  0
    1.4289    0.8250    0.0000 C   0  0  0  0  0  0  0  0  0  0  0  0
    1.4289   -0.0000    0.0000 C   0  0  0  0  0  0  0  0  0  0  0  0
    2.1434   -0.4125    0.0000 Br  0  0  0  0  0  0  0  0  0  0  0  0
    0.7145   -0.4125    0.0000 C   0  0  0  0  0  0  0  0  0  0  0  0
    0.7145   -1.2375    0.0000 O   0  0  0  0  0  0  0  0  0  0  0  0
    0.0000    0.0000    0.0000 C   0  0  0  0  0  0  0  0  0  0  0  0
   -0.7145   -0.4125    0.0000 Br  0  0  0  0  0  0  0  0  0  0  0  0
    0.0000    0.8250    0.0000 C   0  0  0  0  0  0  0  0  0  0  0  0
  1  2  3  0  0  0  0
  2  3  1  0  0  0  0
  3  4  4  0  0  0  0
  4  5  4  0  0  0  0
  5  6  1  0  0  0  0
  5  7  4  0  0  0  0
  7  8  1  0  0  0  0
  7  9  4  0  0  0  0
  9 10  1  0  0  0  0
  9 11  4  0  0  0  0
  3 11  4  0  0  0  0
M  END
> <activity>
101.8

> <InChiKey>
UPMXNNIRAGDFEH-UHFFFAOYSA-N

$$$$

  Mrv2220 08292413132D          

 14 13  0  0  0  0            999 V2000
   -1.3184   -5.3625    0.0000 C   0  0  0  0  0  0  0  0  0  0  0  0
   -1.3184   -4.5375    0.0000 S   0  0  0  0  0  0  0  0  0  0  0  0
   -0.4934   -4.5375    0.0000 O   0  0  0  0  0  0  0  0  0  0  0  0
   -2.1434   -4.5375    0.0000 O   0  0  0  0  0  0  0  0  0  0  0  0
   -1.3184   -3.7125    0.0000 O   0  0  0  0  0  0  0  0  0  0  0  0
   -0.6039   -3.3000    0.0000 C   0  0  0  0  0  0  0  0  0  0  0  0
   -0.6039   -2.4750    0.0000 C   0  0  0  0  0  0  0  0  0  0  0  0
    0.1105   -2.0625    0.0000 C   0  0  0  0  0  0  0  0  0  0  0  0
    0.1105   -1.2375    0.0000 C   0  0  0  0  0  0  0  0  0  0  0  0
    0.8250   -0.8250    0.0000 O   0  0  0  0  0  0  0  0  0  0  0  0
    0.8250    0.0000    0.0000 S   0  0  0  0  0  0  0  0  0  0  0  0
    0.8250    0.8250    0.0000 C   0  0  0  0  0  0  0  0  0  0  0  0
    1.6500   -0.0000    0.0000 O   0  0  0  0  0  0  0  0  0  0  0  0
    0.0000    0.0000    0.0000 O   0  0  0  0  0  0  0  0  0  0  0  0
  1  2  1  0  0  0  0
  2  3  2  0  0  0  0
  2  4  2  0  0  0  0
  2  5  1  0  0  0  0
  5  6  1  0  0  0  0
  6  7  1  0  0  0  0
  7  8  1  0  0  0  0
  8  9  1  0  0  0  0
  9 10  1  0  0  0  0
 10 11  1  0  0  0  0
 11 12  1  0  0  0  0
 11 13  2  0  0  0  0
 11 14  2  0  0  0  0
M  END
> <activity>
11.4

> <InChiKey>
COVZYZSDYWQREU-UHFFFAOYSA-N

$$$$

  Mrv2220 08292413132D          

 21 21  0  0  0  0            999 V2000
    0.9059   -2.9980    0.0000 C   0  0  0  0  0  0  0  0  0  0  0  0
    1.3184   -3.7125    0.0000 C   0  0  0  0  0  0  0  0  0  0  0  0
    2.1434   -3.7125    0.0000 C   0  0  0  0  0  0  0  0  0  0  0  0
    2.5559   -4.4270    0.0000 C   0  0  0  0  0  0  0  0  0  0  0  0
    3.3809   -4.4270    0.0000 O   0  0  0  0  0  0  0  0  0  0  0  0
    3.7934   -5.1414    0.0000 C   0  0  0  0  0  0  0  0  0  0  0  0
    4.6184   -5.1414    0.0000 N   0  0  0  0  0  0  0  0  0  0  0  0
    5.0309   -4.4270    0.0000 C   0  0  0  0  0  0  0  0  0  0  0  0
    5.8559   -4.4270    0.0000 O   0  0  0  0  0  0  0  0  0  0  0  0
    4.6184   -3.7125    0.0000 C   0  0  0  0  0  0  0  0  0  0  0  0
    5.0309   -2.9980    0.0000 Cl  0  0  0  0  0  0  0  0  0  0  0  0
    5.0309   -5.8559    0.0000 C   0  0  0  0  0  0  0  0  0  0  0  0
    5.8559   -5.8559    0.0000 C   0  0  0  0  0  0  0  0  0  0  0  0
    6.2684   -5.1414    0.0000 C   0  0  0  0  0  0  0  0  0  0  0  0
    7.0934   -5.1414    0.0000 C   0  0  0  0  0  0  0  0  0  0  0  0
    6.2684   -6.5704    0.0000 C   0  0  0  0  0  0  0  0  0  0  0  0
    5.8559   -7.2849    0.0000 C   0  0  0  0  0  0  0  0  0  0  0  0
    5.0309   -7.2849    0.0000 C   0  0  0  0  0  0  0  0  0  0  0  0
    4.6184   -6.5704    0.0000 C   0  0  0  0  0  0  0  0  0  0  0  0
    3.7934   -6.5704    0.0000 C   0  0  0  0  0  0  0  0  0  0  0  0
    3.3809   -5.8559    0.0000 C   0  0  0  0  0  0  0  0  0  0  0  0
  1  2  1  0  0  0  0
  2  3  1  0  0  0  0
  3  4  1  0  0  0  0
  4  5  1  0  0  0  0
  5  6  1  0  0  0  0
  6  7  1  0  0  0  0
  7  8  1  0  0  0  0
  8  9  2  0  0  0  0
  8 10  1  0  0  0  0
 10 11  1  0  0  0  0
  7 12  1  0  0  0  0
 12 13  4  0  0  0  0
 13 14  1  0  0  0  0
 14 15  1  0  0  0  0
 13 16  4  0  0  0  0
 16 17  4  0  0  0  0
 17 18  4  0  0  0  0
 18 19  4  0  0  0  0
 12 19  4  0  0  0  0
 19 20  1  0  0  0  0
 20 21  1  0  0  0  0
M  END
> <activity>
39.2

> <InChiKey>
HKPHPIREJKHECO-UHFFFAOYSA-N

$$$$

  Mrv2220 08292413132D          

 32 33  0  0  0  0            999 V2000
   -1.4289    4.1250    0.0000 C   0  0  0  0  0  0  0  0  0  0  0  0
   -1.4289    3.3000    0.0000 C   0  0  0  0  0  0  0  0  0  0  0  0
   -0.7145    2.8875    0.0000 C   0  0  0  0  0  0  0  0  0  0  0  0
   -0.7145    2.0625    0.0000 O   0  0  0  0  0  0  0  0  0  0  0  0
    0.0000    1.6500    0.0000 C   0  0  0  0  0  0  0  0  0  0  0  0
    0.7145    2.0625    0.0000 O   0  0  0  0  0  0  0  0  0  0  0  0
    0.0000    0.8250    0.0000 C   0  0  0  0  0  0  0  0  0  0  0  0
   -0.8250    0.8250    0.0000 C   0  0  0  0  0  0  0  0  0  0  0  0
    0.8250    0.8250    0.0000 C   0  0  0  0  0  0  0  0  0  0  0  0
    0.0000   -0.0000    0.0000 O   0  0  0  0  0  0  0  0  0  0  0  0
    0.7145   -0.4125    0.0000 C   0  0  0  0  0  0  0  0  0  0  0  0
    1.4289    0.0000    0.0000 O   0  0  0  0  0  0  0  0  0  0  0  0
    0.7145   -1.2375    0.0000 C   0  0  0  0  0  0  0  0  0  0  0  0
    1.4289   -1.6500    0.0000 C   0  0  0  0  0  0  0  0  0  0  0  0
    1.4289   -2.4750    0.0000 C   0  0  0  0  0  0  0  0  0  0  0  0
    2.1434   -2.8875    0.0000 N   0  0  0  0  0  0  0  0  0  0  0  0
    2.8579   -2.4750    0.0000 C   0  0  0  0  0  0  0  0  0  0  0  0
    2.8579   -1.6500    0.0000 O   0  0  0  0  0  0  0  0  0  0  0  0
    3.5724   -2.8875    0.0000 C   0  0  0  0  0  0  0  0  0  0  0  0
    3.5724   -3.7125    0.0000 C   0  0  0  0  0  0  0  0  0  0  0  0
    4.2868   -4.1250    0.0000 C   0  0  0  0  0  0  0  0  0  0  0  0
    5.0013   -4.5375    0.0000 F   0  0  0  0  0  0  0  0  0  0  0  0
    3.8743   -4.8395    0.0000 F   0  0  0  0  0  0  0  0  0  0  0  0
    4.6993   -3.4105    0.0000 F   0  0  0  0  0  0  0  0  0  0  0  0
    2.8579   -4.1250    0.0000 N   0  0  0  0  0  0  0  0  0  0  0  0
    2.8579   -4.9500    0.0000 C   0  0  0  0  0  0  0  0  0  0  0  0
    2.1434   -3.7125    0.0000 C   0  0  0  0  0  0  0  0  0  0  0  0
    1.4289   -4.1250    0.0000 O   0  0  0  0  0  0  0  0  0  0  0  0
    0.7145   -2.8875    0.0000 C   0  0  0  0  0  0  0  0  0  0  0  0
    0.0000   -2.4750    0.0000 C   0  0  0  0  0  0  0  0  0  0  0  0
    0.0000   -1.6500    0.0000 C   0  0  0  0  0  0  0  0  0  0  0  0
   -0.7145   -1.2375    0.0000 Cl  0  0  0  0  0  0  0  0  0  0  0  0
  1  2  2  0  0  0  0
  2  3  1  0  0  0  0
  3  4  1  0  0  0  0
  4  5  1  0  0  0  0
  5  6  2  0  0  0  0
  5  7  1  0  0  0  0
  7  8  1  0  0  0  0
  7  9  1  0  0  0  0
  7 10  1  0  0  0  0
 10 11  1  0  0  0  0
 11 12  2  0  0  0  0
 11 13  1  0  0  0  0
 13 14  4  0  0  0  0
 14 15  4  0  0  0  0
 15 16  1  0  0  0  0
 16 17  4  0  0  0  0
 17 18  2  0  0  0  0
 17 19  4  0  0  0  0
 19 20  4  0  0  0  0
 20 21  1  0  0  0  0
 21 22  1  0  0  0  0
 21 23  1  0  0  0  0
 21 24  1  0  0  0  0
 20 25  4  0  0  0  0
 25 26  1  0  0  0  0
 25 27  4  0  0  0  0
 16 27  4  0  0  0  0
 27 28  2  0  0  0  0
 15 29  4  0  0  0  0
 29 30  4  0  0  0  0
 30 31  4  0  0  0  0
 13 31  4  0  0  0  0
 31 32  1  0  0  0  0
M  END
> <activity>
40.9

> <InChiKey>
JEDYYFXHPAIBGR-UHFFFAOYSA-N

$$$$

  Mrv2220 08292413132D          

 17 17  0  0  0  0            999 V2000
   -1.4289    2.4750    0.0000 C   0  0  0  0  0  0  0  0  0  0  0  0
   -0.7145    2.0625    0.0000 C   0  0  0  0  0  0  0  0  0  0  0  0
   -0.7145    1.2375    0.0000 C   0  0  0  0  0  0  0  0  0  0  0  0
    0.0000    2.4750    0.0000 N   0  0  0  0  0  0  0  0  0  0  0  0
    0.7145    2.0625    0.0000 C   0  0  0  0  0  0  0  0  0  0  0  0
    0.7145    1.2375    0.0000 C   0  0  0  0  0  0  0  0  0  0  0  0
    1.4289    0.8250    0.0000 C   0  0  0  0  0  0  0  0  0  0  0  0
    1.4289   -0.0000    0.0000 C   0  0  0  0  0  0  0  0  0  0  0  0
    0.7145   -0.4125    0.0000 C   0  0  0  0  0  0  0  0  0  0  0  0
    0.0000    0.0000    0.0000 C   0  0  0  0  0  0  0  0  0  0  0  0
    0.0000    0.8250    0.0000 C   0  0  0  0  0  0  0  0  0  0  0  0
    0.0000    3.3000    0.0000 C   0  0  0  0  0  0  0  0  0  0  0  0
    0.7145    3.7125    0.0000 O   0  0  0  0  0  0  0  0  0  0  0  0
   -0.7145    3.7125    0.0000 C   0  0  0  0  0  0  0  0  0  0  0  0
   -1.4289    4.1250    0.0000 C   0  0  0  0  0  0  0  0  0  0  0  0
   -0.3020    4.4270    0.0000 C   0  0  0  0  0  0  0  0  0  0  0  0
   -1.1270    2.9980    0.0000 C   0  0  0  0  0  0  0  0  0  0  0  0
  1  2  1  0  0  0  0
  2  3  1  0  0  0  0
  2  4  1  0  0  0  0
  4  5  1  0  0  0  0
  5  6  1  0  0  0  0
  6  7  4  0  0  0  0
  7  8  4  0  0  0  0
  8  9  4  0  0  0  0
  9 10  4  0  0  0  0
 10 11  4  0  0  0  0
  6 11  4  0  0  0  0
  4 12  1  0  0  0  0
 12 13  2  0  0  0  0
 12 14  1  0  0  0  0
 14 15  1  0  0  0  0
 14 16  1  0  0  0  0
 14 17  1  0  0  0  0
M  END
> <activity>
10.1

> <InChiKey>
RJKCKKDSSSRYCB-UHFFFAOYSA-N

$$$$

  Mrv2220 08292413132D          

  9  8  0  0  0  0            999 V2000
    1.0461    1.4289    0.0000 C   0  0  0  0  0  0  0  0  0  0  0  0
    1.7605    1.8414    0.0000 C   0  0  0  0  0  0  0  0  0  0  0  0
    2.4750    1.4289    0.0000 C   0  0  0  0  0  0  0  0  0  0  0  0
    2.4750    0.6039    0.0000 O   0  0  0  0  0  0  0  0  0  0  0  0
    3.1895    1.8414    0.0000 O   0  0  0  0  0  0  0  0  0  0  0  0
    3.9039    1.4289    0.0000 C   0  0  0  0  0  0  0  0  0  0  0  0
    4.6184    1.8414    0.0000 C   0  0  0  0  0  0  0  0  0  0  0  0
    5.3329    1.4289    0.0000 C   0  0  0  0  0  0  0  0  0  0  0  0
    6.0474    1.8414    0.0000 C   0  0  0  0  0  0  0  0  0  0  0  0
  1  2  2  0  0  0  0
  2  3  1  0  0  0  0
  3  4  2  0  0  0  0
  3  5  1  0  0  0  0
  5  6  1  0  0  0  0
  6  7  1  0  0  0  0
  7  8  1  0  0  0  0
  8  9  1  0  0  0  0
M  END
> <activity>
4.5

> <InChiKey>
CQEYYJKEWSMYFG-UHFFFAOYSA-N

$$$$

  Mrv2220 08292413132D          

 13 13  0  0  0  0            999 V2000
    1.4289   -4.1250    0.0000 C   0  0  0  0  0  0  0  0  0  0  0  0
    2.1434   -3.7125    0.0000 C   0  0  0  0  0  0  0  0  0  0  0  0
    2.8579   -4.1250    0.0000 C   0  0  0  0  0  0  0  0  0  0  0  0
    3.5724   -3.7125    0.0000 C   0  0  0  0  0  0  0  0  0  0  0  0
    4.2868   -4.1250    0.0000 O   0  0  0  0  0  0  0  0  0  0  0  0
    5.0013   -3.7125    0.0000 C   0  0  0  0  0  0  0  0  0  0  0  0
    5.0013   -2.8875    0.0000 O   0  0  0  0  0  0  0  0  0  0  0  0
    5.7158   -4.1250    0.0000 C   0  0  0  0  0  0  0  0  0  0  0  0
    6.4302   -3.7125    0.0000 C   0  0  0  0  0  0  0  0  0  0  0  0
    7.1447   -4.1250    0.0000 C   0  0  0  0  0  0  0  0  0  0  0  0
    7.1447   -4.9500    0.0000 C   0  0  0  0  0  0  0  0  0  0  0  0
    6.4302   -5.3625    0.0000 C   0  0  0  0  0  0  0  0  0  0  0  0
    5.7158   -4.9500    0.0000 C   0  0  0  0  0  0  0  0  0  0  0  0
  1  2  1  0  0  0  0
  2  3  1  0  0  0  0
  3  4  1  0  0  0  0
  4  5  1  0  0  0  0
  5  6  1  0  0  0  0
  6  7  2  0  0  0  0
  6  8  1  0  0  0  0
  8  9  4  0  0  0  0
  9 10  4  0  0  0  0
 10 11  4  0  0  0  0
 11 12  4  0  0  0  0
 12 13  4  0  0  0  0
  8 13  4  0  0  0  0
M  END
> <activity>
17.1

> <InChiKey>
XSIFPSYPOVKYCO-UHFFFAOYSA-N

$$$$

  Mrv2220 08292413132D          

  9  9  0  0  0  0            999 V2000
    3.3000    1.4289    0.0000 C   0  0  0  0  0  0  0  0  0  0  0  0
    4.0145    1.8414    0.0000 C   0  0  0  0  0  0  0  0  0  0  0  0
    4.7289    1.4289    0.0000 C   0  0  0  0  0  0  0  0  0  0  0  0
    5.4434    1.8414    0.0000 C   0  0  0  0  0  0  0  0  0  0  0  0
    6.1579    1.4289    0.0000 O   0  0  0  0  0  0  0  0  0  0  0  0
    6.8724    1.8414    0.0000 C   0  0  0  0  0  0  0  0  0  0  0  0
    7.5868    1.4289    0.0000 C   0  0  0  0  0  0  0  0  0  0  0  0
    8.4118    1.4289    0.0000 C   0  0  0  0  0  0  0  0  0  0  0  0
    7.9993    0.7145    0.0000 O   0  0  0  0  0  0  0  0  0  0  0  0
  1  2  1  0  0  0  0
  2  3  1  0  0  0  0
  3  4  1  0  0  0  0
  4  5  1  0  0  0  0
  5  6  1  0  0  0  0
  6  7  1  0  0  0  0
  7  8  1  0  0  0  0
  8  9  1  0  0  0  0
  7  9  1  0  0  0  0
M  END
> <activity>
5.5

> <InChiKey>
YSUQLAYJZDEMOT-UHFFFAOYSA-N

$$$$

  Mrv2220 08292413132D          

 14 13  0  0  0  0            999 V2000
    1.2375    0.7145    0.0000 C   0  0  0  0  0  0  0  0  0  0  0  0
    1.6500   -0.0000    0.0000 C   0  0  0  0  0  0  0  0  0  0  0  0
    2.4750   -0.0000    0.0000 S   0  0  0  0  0  0  0  0  0  0  0  0
    2.8875    0.7145    0.0000 C   0  0  0  0  0  0  0  0  0  0  0  0
    2.4750    1.4289    0.0000 O   0  0  0  0  0  0  0  0  0  0  0  0
    3.7125    0.7145    0.0000 N   0  0  0  0  0  0  0  0  0  0  0  0
    4.1250    1.4289    0.0000 C   0  0  0  0  0  0  0  0  0  0  0  0
    3.7125    2.1434    0.0000 C   0  0  0  0  0  0  0  0  0  0  0  0
    2.8875    2.1434    0.0000 C   0  0  0  0  0  0  0  0  0  0  0  0
    4.1250    2.8579    0.0000 C   0  0  0  0  0  0  0  0  0  0  0  0
    4.1250   -0.0000    0.0000 C   0  0  0  0  0  0  0  0  0  0  0  0
    4.9500    0.0000    0.0000 C   0  0  0  0  0  0  0  0  0  0  0  0
    5.3625    0.7145    0.0000 C   0  0  0  0  0  0  0  0  0  0  0  0
    5.3625   -0.7145    0.0000 C   0  0  0  0  0  0  0  0  0  0  0  0
  1  2  1  0  0  0  0
  2  3  1  0  0  0  0
  3  4  1  0  0  0  0
  4  5  2  0  0  0  0
  4  6  1  0  0  0  0
  6  7  1  0  0  0  0
  7  8  1  0  0  0  0
  8  9  1  0  0  0  0
  8 10  1  0  0  0  0
  6 11  1  0  0  0  0
 11 12  1  0  0  0  0
 12 13  1  0  0  0  0
 12 14  1  0  0  0  0
M  END
> <activity>
13.3

> <InChiKey>
BMTAFVWTTFSTOG-UHFFFAOYSA-N

$$$$

  Mrv2220 08292413132D          

 10 10  0  0  0  0            999 V2000
   -0.7145    3.7125    0.0000 C   0  0  0  0  0  0  0  0  0  0  0  0
    0.0000    3.3000    0.0000 C   0  0  0  0  0  0  0  0  0  0  0  0
    0.0000    2.4750    0.0000 C   0  0  0  0  0  0  0  0  0  0  0  0
    0.7145    2.0625    0.0000 C   0  0  0  0  0  0  0  0  0  0  0  0
    0.7145    1.2375    0.0000 C   0  0  0  0  0  0  0  0  0  0  0  0
    1.4289    0.8250    0.0000 C   0  0  0  0  0  0  0  0  0  0  0  0
    1.4289   -0.0000    0.0000 C   0  0  0  0  0  0  0  0  0  0  0  0
    0.7145   -0.4125    0.0000 C   0  0  0  0  0  0  0  0  0  0  0  0
    0.0000    0.0000    0.0000 C   0  0  0  0  0  0  0  0  0  0  0  0
    0.0000    0.8250    0.0000 C   0  0  0  0  0  0  0  0  0  0  0  0
  1  2  1  0  0  0  0
  2  3  1  0  0  0  0
  3  4  1  0  0  0  0
  4  5  1  0  0  0  0
  5  6  4  0  0  0  0
  6  7  4  0  0  0  0
  7  8  4  0  0  0  0
  8  9  4  0  0  0  0
  9 10  4  0  0  0  0
  5 10  4  0  0  0  0
M  END
> <activity>
16.0

> <InChiKey>
OCKPCBLVNKHBMX-UHFFFAOYSA-N

$$$$

  Mrv2220 08292413132D          

 18 19  0  0  0  0            999 V2000
   -0.7145   -3.7125    0.0000 C   0  0  0  0  0  0  0  0  0  0  0  0
   -0.7145   -2.8875    0.0000 C   0  0  0  0  0  0  0  0  0  0  0  0
    0.0000   -2.4750    0.0000 C   0  0  0  0  0  0  0  0  0  0  0  0
    0.0000   -1.6500    0.0000 C   0  0  0  0  0  0  0  0  0  0  0  0
    0.7145   -1.2375    0.0000 C   0  0  0  0  0  0  0  0  0  0  0  0
    0.7145   -0.4125    0.0000 C   0  0  0  0  0  0  0  0  0  0  0  0
    1.4289    0.0000    0.0000 C   0  0  0  0  0  0  0  0  0  0  0  0
    2.1434   -0.4125    0.0000 C   0  0  0  0  0  0  0  0  0  0  0  0
    2.8579    0.0000    0.0000 C   0  0  0  0  0  0  0  0  0  0  0  0
    3.5724   -0.4125    0.0000 C   0  0  0  0  0  0  0  0  0  0  0  0
    3.5724   -1.2375    0.0000 C   0  0  0  0  0  0  0  0  0  0  0  0
    2.8579   -1.6500    0.0000 C   0  0  0  0  0  0  0  0  0  0  0  0
    2.8579   -2.4750    0.0000 S   0  0  0  0  0  0  0  0  0  0  0  0
    2.8579   -3.3000    0.0000 O   0  0  0  0  0  0  0  0  0  0  0  0
    2.0329   -2.4750    0.0000 O   0  0  0  0  0  0  0  0  0  0  0  0
    3.6829   -2.4750    0.0000 O   0  0  0  0  0  0  0  0  0  0  0  0
    2.1434   -1.2375    0.0000 C   0  0  0  0  0  0  0  0  0  0  0  0
    1.4289   -1.6500    0.0000 C   0  0  0  0  0  0  0  0  0  0  0  0
  1  2  1  0  0  0  0
  2  3  1  0  0  0  0
  3  4  1  0  0  0  0
  4  5  1  0  0  0  0
  5  6  4  0  0  0  0
  6  7  4  0  0  0  0
  7  8  4  0  0  0  0
  8  9  4  0  0  0  0
  9 10  4  0  0  0  0
 10 11  4  0  0  0  0
 11 12  4  0  0  0  0
 12 13  1  0  0  0  0
 13 14  2  0  0  0  0
 13 15  2  0  0  0  0
 13 16  1  0  0  0  0
 12 17  4  0  0  0  0
  8 17  4  0  0  0  0
 17 18  4  0  0  0  0
  5 18  4  0  0  0  0
M  END
> <activity>
101.1

> <InChiKey>
FHPXUJKXLCUVKJ-UHFFFAOYSA-N

$$$$

  Mrv2220 08292413132D          

 14 14  0  0  0  0            999 V2000
    1.4289   -4.1250    0.0000 C   0  0  0  0  0  0  0  0  0  0  0  0
    2.1434   -3.7125    0.0000 C   0  0  0  0  0  0  0  0  0  0  0  0
    2.8579   -4.1250    0.0000 C   0  0  0  0  0  0  0  0  0  0  0  0
    3.5724   -3.7125    0.0000 C   0  0  0  0  0  0  0  0  0  0  0  0
    4.2868   -4.1250    0.0000 O   0  0  0  0  0  0  0  0  0  0  0  0
    5.0013   -3.7125    0.0000 C   0  0  0  0  0  0  0  0  0  0  0  0
    5.0013   -2.8875    0.0000 O   0  0  0  0  0  0  0  0  0  0  0  0
    5.7158   -4.1250    0.0000 C   0  0  0  0  0  0  0  0  0  0  0  0
    6.4302   -3.7125    0.0000 C   0  0  0  0  0  0  0  0  0  0  0  0
    7.1447   -4.1250    0.0000 C   0  0  0  0  0  0  0  0  0  0  0  0
    7.1447   -4.9500    0.0000 C   0  0  0  0  0  0  0  0  0  0  0  0
    7.8592   -5.3625    0.0000 O   0  0  0  0  0  0  0  0  0  0  0  0
    6.4302   -5.3625    0.0000 C   0  0  0  0  0  0  0  0  0  0  0  0
    5.7158   -4.9500    0.0000 C   0  0  0  0  0  0  0  0  0  0  0  0
  1  2  1  0  0  0  0
  2  3  1  0  0  0  0
  3  4  1  0  0  0  0
  4  5  1  0  0  0  0
  5  6  1  0  0  0  0
  6  7  2  0  0  0  0
  6  8  1  0  0  0  0
  8  9  4  0  0  0  0
  9 10  4  0  0  0  0
 10 11  4  0  0  0  0
 11 12  1  0  0  0  0
 11 13  4  0  0  0  0
 13 14  4  0  0  0  0
  8 14  4  0  0  0  0
M  END
> <activity>
100.1

> <InChiKey>
QFOHBWFCKVYLES-UHFFFAOYSA-N

$$$$

  Mrv2220 08292413132D          

  6  5  0  0  0  0            999 V2000
    2.4750    1.4289    0.0000 C   0  0  0  0  0  0  0  0  0  0  0  0
    2.0625    0.7145    0.0000 C   0  0  0  0  0  0  0  0  0  0  0  0
    1.2375    0.7145    0.0000 C   0  0  0  0  0  0  0  0  0  0  0  0
    0.8250    0.0000    0.0000 C   0  0  0  0  0  0  0  0  0  0  0  0
    0.0000    0.0000    0.0000 N   0  0  0  0  0  0  0  0  0  0  0  0
   -0.4125   -0.7145    0.0000 O   0  0  0  0  0  0  0  0  0  0  0  0
  1  2  1  0  0  0  0
  2  3  1  0  0  0  0
  3  4  1  0  0  0  0
  4  5  2  0  0  0  0
  5  6  1  4  0  0  0
M  END
> <activity>
7.1

> <InChiKey>
KGGVGTQEGGOZRN-UHFFFAOYSA-N

$$$$

  Mrv2220 08292413132D          

 27 29  0  0  0  0            999 V2000
   -0.7145   -2.0625    0.0000 O   0  0  0  0  0  0  0  0  0  0  0  0
    0.0000   -1.6500    0.0000 S   0  0  0  0  0  0  0  0  0  0  0  0
    0.4125   -2.3645    0.0000 O   0  0  0  0  0  0  0  0  0  0  0  0
   -0.4125   -0.9355    0.0000 O   0  0  0  0  0  0  0  0  0  0  0  0
    0.7145   -1.2375    0.0000 C   0  0  0  0  0  0  0  0  0  0  0  0
    0.7145   -0.4125    0.0000 C   0  0  0  0  0  0  0  0  0  0  0  0
    1.4289    0.0000    0.0000 C   0  0  0  0  0  0  0  0  0  0  0  0
    1.4289    0.8250    0.0000 S   0  0  0  0  0  0  0  0  0  0  0  0
    2.2539    0.8250    0.0000 O   0  0  0  0  0  0  0  0  0  0  0  0
    0.6039    0.8250    0.0000 O   0  0  0  0  0  0  0  0  0  0  0  0
    1.4289    1.6500    0.0000 O   0  0  0  0  0  0  0  0  0  0  0  0
    2.1434   -0.4125    0.0000 C   0  0  0  0  0  0  0  0  0  0  0  0
    2.8579    0.0000    0.0000 C   0  0  0  0  0  0  0  0  0  0  0  0
    2.8579    0.8250    0.0000 N   0  0  0  0  0  0  0  0  0  0  0  0
    3.5724    1.2375    0.0000 N   0  0  0  0  0  0  0  0  0  0  0  0
    3.5724    2.0625    0.0000 C   0  0  0  0  0  0  0  0  0  0  0  0
    2.8579    2.4750    0.0000 C   0  0  0  0  0  0  0  0  0  0  0  0
    2.8579    3.3000    0.0000 C   0  0  0  0  0  0  0  0  0  0  0  0
    3.5724    3.7125    0.0000 C   0  0  0  0  0  0  0  0  0  0  0  0
    4.2868    3.3000    0.0000 C   0  0  0  0  0  0  0  0  0  0  0  0
    4.2868    2.4750    0.0000 C   0  0  0  0  0  0  0  0  0  0  0  0
    3.5724   -0.4125    0.0000 C   0  0  0  0  0  0  0  0  0  0  0  0
    4.2868   -0.0000    0.0000 O   0  0  0  0  0  0  0  0  0  0  0  0
    3.5724   -1.2375    0.0000 C   0  0  0  0  0  0  0  0  0  0  0  0
    2.8579   -1.6500    0.0000 C   0  0  0  0  0  0  0  0  0  0  0  0
    2.1434   -1.2375    0.0000 C   0  0  0  0  0  0  0  0  0  0  0  0
    1.4289   -1.6500    0.0000 C   0  0  0  0  0  0  0  0  0  0  0  0
  1  2  2  0  0  0  0
  2  3  2  0  0  0  0
  2  4  1  0  0  0  0
  2  5  1  0  0  0  0
  5  6  4  0  0  0  0
  6  7  4  0  0  0  0
  7  8  1  0  0  0  0
  8  9  2  0  0  0  0
  8 10  2  0  0  0  0
  8 11  1  0  0  0  0
  7 12  4  0  0  0  0
 12 13  4  0  0  0  0
 14 13  1  4  0  0  0
 14 15  2  0  0  0  0
 15 16  1  0  0  0  0
 16 17  4  0  0  0  0
 17 18  4  0  0  0  0
 18 19  4  0  0  0  0
 19 20  4  0  0  0  0
 20 21  4  0  0  0  0
 16 21  4  0  0  0  0
 13 22  4  0  0  0  0
 22 23  1  0  0  0  0
 22 24  4  0  0  0  0
 24 25  4  0  0  0  0
 25 26  4  0  0  0  0
 12 26  4  0  0  0  0
 26 27  4  0  0  0  0
  5 27  4  0  0  0  0
M  END
> <activity>
108.8

> <InChiKey>
MPVDXIMFBOLMNW-UHFFFAOYSA-N

$$$$

  Mrv2220 08292413132D          

 25 27  0  0  0  0            999 V2000
    1.4289   -1.6500    0.0000 C   0  0  0  0  0  0  0  0  0  0  0  0
    1.4289   -2.4750    0.0000 C   0  0  0  0  0  0  0  0  0  0  0  0
    2.0964   -2.9599    0.0000 N   0  0  0  0  0  0  0  0  0  0  0  0
    1.8414   -3.7445    0.0000 N   0  0  0  0  0  0  0  0  0  0  0  0
    2.3264   -4.4120    0.0000 C   0  0  0  0  0  0  0  0  0  0  0  0
    3.1468   -4.3257    0.0000 C   0  0  0  0  0  0  0  0  0  0  0  0
    3.6318   -4.9932    0.0000 C   0  0  0  0  0  0  0  0  0  0  0  0
    3.2962   -5.7469    0.0000 C   0  0  0  0  0  0  0  0  0  0  0  0
    3.7811   -6.4143    0.0000 S   0  0  0  0  0  0  0  0  0  0  0  0
    4.2661   -7.0817    0.0000 O   0  0  0  0  0  0  0  0  0  0  0  0
    4.4486   -5.9294    0.0000 O   0  0  0  0  0  0  0  0  0  0  0  0
    3.1137   -6.8992    0.0000 O   0  0  0  0  0  0  0  0  0  0  0  0
    2.4757   -5.8331    0.0000 C   0  0  0  0  0  0  0  0  0  0  0  0
    1.9908   -5.1657    0.0000 C   0  0  0  0  0  0  0  0  0  0  0  0
    1.0164   -3.7445    0.0000 C   0  0  0  0  0  0  0  0  0  0  0  0
    0.5315   -4.4120    0.0000 O   0  0  0  0  0  0  0  0  0  0  0  0
    0.7615   -2.9599    0.0000 C   0  0  0  0  0  0  0  0  0  0  0  0
   -0.0231   -2.7050    0.0000 N   0  0  0  0  0  0  0  0  0  0  0  0
   -0.6362   -3.2570    0.0000 N   0  0  0  0  0  0  0  0  0  0  0  0
   -1.4208   -3.0021    0.0000 C   0  0  0  0  0  0  0  0  0  0  0  0
   -2.0339   -3.5541    0.0000 C   0  0  0  0  0  0  0  0  0  0  0  0
   -2.8186   -3.2992    0.0000 C   0  0  0  0  0  0  0  0  0  0  0  0
   -2.9901   -2.4922    0.0000 C   0  0  0  0  0  0  0  0  0  0  0  0
   -2.3770   -1.9402    0.0000 C   0  0  0  0  0  0  0  0  0  0  0  0
   -1.5924   -2.1951    0.0000 C   0  0  0  0  0  0  0  0  0  0  0  0
  1  2  1  0  0  0  0
  2  3  2  0  0  0  0
  3  4  1  0  0  0  0
  4  5  1  0  0  0  0
  5  6  4  0  0  0  0
  6  7  4  0  0  0  0
  7  8  4  0  0  0  0
  8  9  1  0  0  0  0
  9 10  2  0  0  0  0
  9 11  2  0  0  0  0
  9 12  1  0  0  0  0
  8 13  4  0  0  0  0
 13 14  4  0  0  0  0
  5 14  4  0  0  0  0
  4 15  1  0  0  0  0
 15 16  2  0  0  0  0
 15 17  1  0  0  0  0
  2 17  1  0  0  0  0
 18 17  1  4  0  0  0
 18 19  2  0  0  0  0
 19 20  1  0  0  0  0
 20 21  4  0  0  0  0
 21 22  4  0  0  0  0
 22 23  4  0  0  0  0
 23 24  4  0  0  0  0
 24 25  4  0  0  0  0
 20 25  4  0  0  0  0
M  END
> <activity>
108.3

> <InChiKey>
OILFJMYLWASPJD-UHFFFAOYSA-N

$$$$

  Mrv2220 08292413132D          

 31 33  0  0  0  0            999 V2000
    1.4289   -1.6500    0.0000 C   0  0  0  0  0  0  0  0  0  0  0  0
    1.4289   -2.4750    0.0000 C   0  0  0  0  0  0  0  0  0  0  0  0
    2.0964   -2.9599    0.0000 N   0  0  0  0  0  0  0  0  0  0  0  0
    1.8414   -3.7445    0.0000 N   0  0  0  0  0  0  0  0  0  0  0  0
    2.3264   -4.4120    0.0000 C   0  0  0  0  0  0  0  0  0  0  0  0
    3.1468   -4.3257    0.0000 C   0  0  0  0  0  0  0  0  0  0  0  0
    3.6318   -4.9932    0.0000 C   0  0  0  0  0  0  0  0  0  0  0  0
    4.4522   -4.9070    0.0000 Cl  0  0  0  0  0  0  0  0  0  0  0  0
    3.2962   -5.7469    0.0000 C   0  0  0  0  0  0  0  0  0  0  0  0
    3.7811   -6.4143    0.0000 S   0  0  0  0  0  0  0  0  0  0  0  0
    4.2661   -7.0817    0.0000 O   0  0  0  0  0  0  0  0  0  0  0  0
    4.4486   -5.9294    0.0000 O   0  0  0  0  0  0  0  0  0  0  0  0
    3.1137   -6.8992    0.0000 O   0  0  0  0  0  0  0  0  0  0  0  0
    2.4757   -5.8331    0.0000 C   0  0  0  0  0  0  0  0  0  0  0  0
    1.9908   -5.1657    0.0000 C   0  0  0  0  0  0  0  0  0  0  0  0
    1.1703   -5.2519    0.0000 Cl  0  0  0  0  0  0  0  0  0  0  0  0
    1.0164   -3.7445    0.0000 C   0  0  0  0  0  0  0  0  0  0  0  0
    0.5315   -4.4120    0.0000 O   0  0  0  0  0  0  0  0  0  0  0  0
    0.7615   -2.9599    0.0000 C   0  0  0  0  0  0  0  0  0  0  0  0
   -0.0231   -2.7050    0.0000 N   0  0  0  0  0  0  0  0  0  0  0  0
   -0.6362   -3.2570    0.0000 N   0  0  0  0  0  0  0  0  0  0  0  0
   -1.4208   -3.0021    0.0000 C   0  0  0  0  0  0  0  0  0  0  0  0
   -2.0339   -3.5541    0.0000 C   0  0  0  0  0  0  0  0  0  0  0  0
   -2.8186   -3.2992    0.0000 C   0  0  0  0  0  0  0  0  0  0  0  0
   -2.9901   -2.4922    0.0000 C   0  0  0  0  0  0  0  0  0  0  0  0
   -3.7747   -2.2373    0.0000 S   0  0  0  0  0  0  0  0  0  0  0  0
   -4.5593   -1.9823    0.0000 O   0  0  0  0  0  0  0  0  0  0  0  0
   -3.5198   -1.4526    0.0000 O   0  0  0  0  0  0  0  0  0  0  0  0
   -4.0296   -3.0219    0.0000 O   0  0  0  0  0  0  0  0  0  0  0  0
   -2.3770   -1.9402    0.0000 C   0  0  0  0  0  0  0  0  0  0  0  0
   -1.5924   -2.1951    0.0000 C   0  0  0  0  0  0  0  0  0  0  0  0
  1  2  1  0  0  0  0
  2  3  2  0  0  0  0
  3  4  1  0  0  0  0
  4  5  1  0  0  0  0
  5  6  4  0  0  0  0
  6  7  4  0  0  0  0
  7  8  1  0  0  0  0
  7  9  4  0  0  0  0
  9 10  1  0  0  0  0
 10 11  2  0  0  0  0
 10 12  2  0  0  0  0
 10 13  1  0  0  0  0
  9 14  4  0  0  0  0
 14 15  4  0  0  0  0
  5 15  4  0  0  0  0
 15 16  1  0  0  0  0
  4 17  1  0  0  0  0
 17 18  2  0  0  0  0
 17 19  1  0  0  0  0
  2 19  1  0  0  0  0
 20 19  1  4  0  0  0
 20 21  2  0  0  0  0
 21 22  1  0  0  0  0
 22 23  4  0  0  0  0
 23 24  4  0  0  0  0
 24 25  4  0  0  0  0
 25 26  1  0  0  0  0
 26 27  2  0  0  0  0
 26 28  2  0  0  0  0
 26 29  1  0  0  0  0
 25 30  4  0  0  0  0
 30 31  4  0  0  0  0
 22 31  4  0  0  0  0
M  END
> <activity>
102.2

> <InChiKey>
DWYWPBYWDAZKNX-UHFFFAOYSA-N

$$$$

  Mrv2220 08292413132D          

 29 32  0  0  0  0            999 V2000
    0.5269   -3.0225    0.0000 O   0  0  0  0  0  0  0  0  0  0  0  0
   -0.0862   -2.4705    0.0000 C   0  0  0  0  0  0  0  0  0  0  0  0
   -0.8932   -2.6420    0.0000 C   0  0  0  0  0  0  0  0  0  0  0  0
   -1.3057   -3.3565    0.0000 C   0  0  0  0  0  0  0  0  0  0  0  0
   -2.1307   -3.3565    0.0000 C   0  0  0  0  0  0  0  0  0  0  0  0
   -2.5432   -2.6420    0.0000 C   0  0  0  0  0  0  0  0  0  0  0  0
   -2.1307   -1.9275    0.0000 C   0  0  0  0  0  0  0  0  0  0  0  0
   -1.3057   -1.9275    0.0000 C   0  0  0  0  0  0  0  0  0  0  0  0
   -0.7537   -1.3144    0.0000 C   0  0  0  0  0  0  0  0  0  0  0  0
   -0.9252   -0.5075    0.0000 O   0  0  0  0  0  0  0  0  0  0  0  0
    0.0000   -1.6500    0.0000 C   0  0  0  0  0  0  0  0  0  0  0  0
    0.7145   -1.2375    0.0000 C   0  0  0  0  0  0  0  0  0  0  0  0
    0.7145   -0.4125    0.0000 C   0  0  0  0  0  0  0  0  0  0  0  0
    1.4289    0.0000    0.0000 C   0  0  0  0  0  0  0  0  0  0  0  0
    2.1434   -0.4125    0.0000 C   0  0  0  0  0  0  0  0  0  0  0  0
    2.8579    0.0000    0.0000 C   0  0  0  0  0  0  0  0  0  0  0  0
    3.5724   -0.4125    0.0000 C   0  0  0  0  0  0  0  0  0  0  0  0
    4.2868   -0.0000    0.0000 S   0  0  0  0  0  0  0  0  0  0  0  0
    5.0013    0.4125    0.0000 O   0  0  0  0  0  0  0  0  0  0  0  0
    4.6993   -0.7145    0.0000 O   0  0  0  0  0  0  0  0  0  0  0  0
    3.8743    0.7145    0.0000 O   0  0  0  0  0  0  0  0  0  0  0  0
    3.5724   -1.2375    0.0000 C   0  0  0  0  0  0  0  0  0  0  0  0
    2.8579   -1.6500    0.0000 C   0  0  0  0  0  0  0  0  0  0  0  0
    2.8579   -2.4750    0.0000 S   0  0  0  0  0  0  0  0  0  0  0  0
    2.8579   -3.3000    0.0000 O   0  0  0  0  0  0  0  0  0  0  0  0
    2.0329   -2.4750    0.0000 O   0  0  0  0  0  0  0  0  0  0  0  0
    3.6829   -2.4750    0.0000 O   0  0  0  0  0  0  0  0  0  0  0  0
    2.1434   -1.2375    0.0000 C   0  0  0  0  0  0  0  0  0  0  0  0
    1.4289   -1.6500    0.0000 N   0  0  0  0  0  0  0  0  0  0  0  0
  1  2  2  0  0  0  0
  2  3  1  0  0  0  0
  3  4  4  0  0  0  0
  4  5  4  0  0  0  0
  5  6  4  0  0  0  0
  6  7  4  0  0  0  0
  7  8  4  0  0  0  0
  3  8  4  0  0  0  0
  8  9  1  0  0  0  0
  9 10  2  0  0  0  0
  9 11  1  0  0  0  0
  2 11  1  0  0  0  0
 11 12  1  0  0  0  0
 12 13  4  0  0  0  0
 13 14  4  0  0  0  0
 14 15  4  0  0  0  0
 15 16  4  0  0  0  0
 16 17  4  0  0  0  0
 17 18  1  0  0  0  0
 18 19  2  0  0  0  0
 18 20  2  0  0  0  0
 18 21  1  0  0  0  0
 17 22  4  0  0  0  0
 22 23  4  0  0  0  0
 23 24  1  0  0  0  0
 24 25  2  0  0  0  0
 24 26  2  0  0  0  0
 24 27  1  0  0  0  0
 23 28  4  0  0  0  0
 15 28  4  0  0  0  0
 28 29  4  0  0  0  0
 12 29  4  0  0  0  0
M  END
> <activity>
97.3

> <InChiKey>
OESPFRYVCUTRKF-UHFFFAOYSA-N

$$$$

  Mrv2220 08292413132D          

 26 28  0  0  0  0            999 V2000
    1.4289   -1.6500    0.0000 C   0  0  0  0  0  0  0  0  0  0  0  0
    1.4289   -2.4750    0.0000 C   0  0  0  0  0  0  0  0  0  0  0  0
    2.0964   -2.9599    0.0000 N   0  0  0  0  0  0  0  0  0  0  0  0
    1.8414   -3.7445    0.0000 N   0  0  0  0  0  0  0  0  0  0  0  0
    2.3264   -4.4120    0.0000 C   0  0  0  0  0  0  0  0  0  0  0  0
    3.1468   -4.3257    0.0000 C   0  0  0  0  0  0  0  0  0  0  0  0
    3.6318   -4.9932    0.0000 C   0  0  0  0  0  0  0  0  0  0  0  0
    4.4522   -4.9070    0.0000 S   0  0  0  0  0  0  0  0  0  0  0  0
    5.2727   -4.8207    0.0000 O   0  0  0  0  0  0  0  0  0  0  0  0
    4.3660   -4.0865    0.0000 O   0  0  0  0  0  0  0  0  0  0  0  0
    4.5385   -5.7274    0.0000 O   0  0  0  0  0  0  0  0  0  0  0  0
    3.2962   -5.7469    0.0000 C   0  0  0  0  0  0  0  0  0  0  0  0
    2.4757   -5.8331    0.0000 C   0  0  0  0  0  0  0  0  0  0  0  0
    1.9908   -5.1657    0.0000 C   0  0  0  0  0  0  0  0  0  0  0  0
    1.1703   -5.2519    0.0000 Cl  0  0  0  0  0  0  0  0  0  0  0  0
    1.0164   -3.7445    0.0000 C   0  0  0  0  0  0  0  0  0  0  0  0
    0.5315   -4.4120    0.0000 O   0  0  0  0  0  0  0  0  0  0  0  0
    0.7615   -2.9599    0.0000 C   0  0  0  0  0  0  0  0  0  0  0  0
   -0.0231   -2.7050    0.0000 N   0  0  0  0  0  0  0  0  0  0  0  0
   -0.6362   -3.2570    0.0000 N   0  0  0  0  0  0  0  0  0  0  0  0
   -1.4208   -3.0021    0.0000 C   0  0  0  0  0  0  0  0  0  0  0  0
   -2.0339   -3.5541    0.0000 C   0  0  0  0  0  0  0  0  0  0  0  0
   -2.8186   -3.2992    0.0000 C   0  0  0  0  0  0  0  0  0  0  0  0
   -2.9901   -2.4922    0.0000 C   0  0  0  0  0  0  0  0  0  0  0  0
   -2.3770   -1.9402    0.0000 C   0  0  0  0  0  0  0  0  0  0  0  0
   -1.5924   -2.1951    0.0000 C   0  0  0  0  0  0  0  0  0  0  0  0
  1  2  1  0  0  0  0
  2  3  2  0  0  0  0
  3  4  1  0  0  0  0
  4  5  1  0  0  0  0
  5  6  4  0  0  0  0
  6  7  4  0  0  0  0
  7  8  1  0  0  0  0
  8  9  2  0  0  0  0
  8 10  2  0  0  0  0
  8 11  1  0  0  0  0
  7 12  4  0  0  0  0
 12 13  4  0  0  0  0
 13 14  4  0  0  0  0
  5 14  4  0  0  0  0
 14 15  1  0  0  0  0
  4 16  1  0  0  0  0
 16 17  2  0  0  0  0
 16 18  1  0  0  0  0
  2 18  1  0  0  0  0
 19 18  1  4  0  0  0
 19 20  2  0  0  0  0
 20 21  1  0  0  0  0
 21 22  4  0  0  0  0
 22 23  4  0  0  0  0
 23 24  4  0  0  0  0
 24 25  4  0  0  0  0
 25 26  4  0  0  0  0
 21 26  4  0  0  0  0
M  END
> <activity>
109.6

> <InChiKey>
QDTMJKXRTWLGGY-UHFFFAOYSA-N

$$$$

  Mrv2220 08292413132D          

 11 11  0  0  0  0            999 V2000
    0.7145    2.0625    0.0000 C   0  0  0  0  0  0  0  0  0  0  0  0
    0.7145    1.2375    0.0000 C   0  0  0  0  0  0  0  0  0  0  0  0
    1.4289    0.8250    0.0000 C   0  0  0  0  0  0  0  0  0  0  0  0
    1.4289   -0.0000    0.0000 C   0  0  0  0  0  0  0  0  0  0  0  0
    0.7145   -0.4125    0.0000 C   0  0  0  0  0  0  0  0  0  0  0  0
    0.7145   -1.2375    0.0000 N   0  3  0  0  0  0  0  0  0  0  0  0
    1.4289   -1.6500    0.0000 O   0  0  0  0  0  0  0  0  0  0  0  0
   -0.0000   -1.6500    0.0000 O   0  5  0  0  0  0  0  0  0  0  0  0
    0.0000    0.0000    0.0000 C   0  0  0  0  0  0  0  0  0  0  0  0
    0.0000    0.8250    0.0000 C   0  0  0  0  0  0  0  0  0  0  0  0
   -0.7145    1.2375    0.0000 N   0  0  0  0  0  0  0  0  0  0  0  0
  1  2  1  0  0  0  0
  2  3  4  0  0  0  0
  3  4  4  0  0  0  0
  4  5  4  0  0  0  0
  5  6  1  0  0  0  0
  6  7  2  0  0  0  0
  6  8  1  0  0  0  0
  5  9  4  0  0  0  0
  9 10  4  0  0  0  0
  2 10  4  0  0  0  0
 10 11  1  0  0  0  0
M  CHG  2   6   1   8  -1
M  END
> <activity>
80.8

> <InChiKey>
DSBIJCMXAIKKKI-UHFFFAOYSA-N

$$$$

  Mrv2220 08292413132D          

 44 48  0  0  0  0            999 V2000
    0.7145   -2.8875    0.0000 O   0  0  0  0  0  0  0  0  0  0  0  0
    0.0000   -2.4750    0.0000 C   0  0  0  0  0  0  0  0  0  0  0  0
    0.0000   -1.6500    0.0000 N   0  0  0  0  0  0  0  0  0  0  0  0
    0.7145   -1.2375    0.0000 C   0  0  0  0  0  0  0  0  0  0  0  0
    0.7145   -0.4125    0.0000 C   0  0  0  0  0  0  0  0  0  0  0  0
    1.4289    0.0000    0.0000 C   0  0  0  0  0  0  0  0  0  0  0  0
    2.1434   -0.4125    0.0000 C   0  0  0  0  0  0  0  0  0  0  0  0
    2.8579    0.0000    0.0000 C   0  0  0  0  0  0  0  0  0  0  0  0
    2.8579    0.8250    0.0000 O   0  0  0  0  0  0  0  0  0  0  0  0
    3.5724   -0.4125    0.0000 C   0  0  0  0  0  0  0  0  0  0  0  0
    4.2868   -0.0000    0.0000 N   0  0  0  0  0  0  0  0  0  0  0  0
    4.2868    0.8250    0.0000 N   0  0  0  0  0  0  0  0  0  0  0  0
    5.0013    1.2375    0.0000 C   0  0  0  0  0  0  0  0  0  0  0  0
    5.0013    2.0625    0.0000 C   0  0  0  0  0  0  0  0  0  0  0  0
    5.7158    2.4750    0.0000 C   0  0  0  0  0  0  0  0  0  0  0  0
    6.4302    2.0625    0.0000 C   0  0  0  0  0  0  0  0  0  0  0  0
    7.1447    2.4750    0.0000 N   0  0  0  0  0  0  0  0  0  0  0  0
    7.1447    3.3000    0.0000 N   0  0  0  0  0  0  0  0  0  0  0  0
    7.8592    3.7125    0.0000 C   0  0  0  0  0  0  0  0  0  0  0  0
    7.8592    4.5375    0.0000 C   0  0  0  0  0  0  0  0  0  0  0  0
    8.5737    4.9500    0.0000 C   0  0  0  0  0  0  0  0  0  0  0  0
    9.2881    4.5375    0.0000 C   0  0  0  0  0  0  0  0  0  0  0  0
   10.0026    4.9500    0.0000 S   0  0  0  0  0  0  0  0  0  0  0  0
   10.7171    5.3625    0.0000 O   0  0  0  0  0  0  0  0  0  0  0  0
    9.5901    5.6645    0.0000 O   0  0  0  0  0  0  0  0  0  0  0  0
   10.4151    4.2355    0.0000 O   0  0  0  0  0  0  0  0  0  0  0  0
    9.2881    3.7125    0.0000 C   0  0  0  0  0  0  0  0  0  0  0  0
    8.5737    3.3000    0.0000 C   0  0  0  0  0  0  0  0  0  0  0  0
    6.4302    1.2375    0.0000 C   0  0  0  0  0  0  0  0  0  0  0  0
    5.7158    0.8250    0.0000 C   0  0  0  0  0  0  0  0  0  0  0  0
    3.5724   -1.2375    0.0000 C   0  0  0  0  0  0  0  0  0  0  0  0
    4.2868   -1.6500    0.0000 S   0  0  0  0  0  0  0  0  0  0  0  0
    5.0013   -2.0625    0.0000 O   0  0  0  0  0  0  0  0  0  0  0  0
    3.8743   -2.3645    0.0000 O   0  0  0  0  0  0  0  0  0  0  0  0
    4.6993   -0.9355    0.0000 O   0  0  0  0  0  0  0  0  0  0  0  0
    2.8579   -1.6500    0.0000 C   0  0  0  0  0  0  0  0  0  0  0  0
    2.1434   -1.2375    0.0000 C   0  0  0  0  0  0  0  0  0  0  0  0
    1.4289   -1.6500    0.0000 C   0  0  0  0  0  0  0  0  0  0  0  0
   -0.7145   -2.8875    0.0000 C   0  0  0  0  0  0  0  0  0  0  0  0
   -0.7145   -3.7125    0.0000 C   0  0  0  0  0  0  0  0  0  0  0  0
   -1.4289   -4.1250    0.0000 C   0  0  0  0  0  0  0  0  0  0  0  0
   -2.1434   -3.7125    0.0000 C   0  0  0  0  0  0  0  0  0  0  0  0
   -2.1434   -2.8875    0.0000 C   0  0  0  0  0  0  0  0  0  0  0  0
   -1.4289   -2.4750    0.0000 C   0  0  0  0  0  0  0  0  0  0  0  0
  1  2  2  0  0  0  0
  2  3  1  0  0  0  0
  3  4  1  0  0  0  0
  4  5  4  0  0  0  0
  5  6  4  0  0  0  0
  6  7  4  0  0  0  0
  7  8  4  0  0  0  0
  8  9  1  0  0  0  0
  8 10  4  0  0  0  0
 11 10  1  4  0  0  0
 11 12  2  0  0  0  0
 12 13  1  0  0  0  0
 13 14  4  0  0  0  0
 14 15  4  0  0  0  0
 15 16  4  0  0  0  0
 17 16  1  4  0  0  0
 17 18  2  0  0  0  0
 18 19  1  0  0  0  0
 19 20  4  0  0  0  0
 20 21  4  0  0  0  0
 21 22  4  0  0  0  0
 22 23  1  0  0  0  0
 23 24  2  0  0  0  0
 23 25  2  0  0  0  0
 23 26  1  0  0  0  0
 22 27  4  0  0  0  0
 27 28  4  0  0  0  0
 19 28  4  0  0  0  0
 16 29  4  0  0  0  0
 29 30  4  0  0  0  0
 13 30  4  0  0  0  0
 10 31  4  0  0  0  0
 31 32  1  0  0  0  0
 32 33  2  0  0  0  0
 32 34  2  0  0  0  0
 32 35  1  0  0  0  0
 31 36  4  0  0  0  0
 36 37  4  0  0  0  0
  7 37  4  0  0  0  0
 37 38  4  0  0  0  0
  4 38  4  0  0  0  0
  2 39  1  0  0  0  0
 39 40  4  0  0  0  0
 40 41  4  0  0  0  0
 41 42  4  0  0  0  0
 42 43  4  0  0  0  0
 43 44  4  0  0  0  0
 39 44  4  0  0  0  0
M  END
> <activity>
103.4

> <InChiKey>
IGXZMQCLUNTWCC-UHFFFAOYSA-N

$$$$

  Mrv2220 08292413132D          

 25 25  0  0  0  0            999 V2000
    5.0013   -9.4875    0.0000 C   0  0  0  0  0  0  0  0  0  0  0  0
    5.7158   -9.0750    0.0000 C   0  0  0  0  0  0  0  0  0  0  0  0
    6.4302   -9.4875    0.0000 C   0  0  0  0  0  0  0  0  0  0  0  0
    7.1447   -9.0750    0.0000 C   0  0  0  0  0  0  0  0  0  0  0  0
    7.8592   -9.4875    0.0000 C   0  0  0  0  0  0  0  0  0  0  0  0
    8.5737   -9.0750    0.0000 C   0  0  0  0  0  0  0  0  0  0  0  0
    9.2881   -9.4875    0.0000 C   0  0  0  0  0  0  0  0  0  0  0  0
   10.0026   -9.0750    0.0000 C   0  0  0  0  0  0  0  0  0  0  0  0
   10.7171   -9.4875    0.0000 C   0  0  0  0  0  0  0  0  0  0  0  0
   11.4315   -9.0750    0.0000 C   0  0  0  0  0  0  0  0  0  0  0  0
   12.1460   -9.4875    0.0000 C   0  0  0  0  0  0  0  0  0  0  0  0
   12.8605   -9.0750    0.0000 C   0  0  0  0  0  0  0  0  0  0  0  0
   13.5749   -9.4875    0.0000 C   0  0  0  0  0  0  0  0  0  0  0  0
   14.2894   -9.0750    0.0000 C   0  0  0  0  0  0  0  0  0  0  0  0
   15.0039   -9.4875    0.0000 C   0  0  0  0  0  0  0  0  0  0  0  0
   15.7184   -9.0750    0.0000 S   0  0  0  0  0  0  0  0  0  0  0  0
   16.1309   -9.7895    0.0000 O   0  0  0  0  0  0  0  0  0  0  0  0
   15.3059   -8.3605    0.0000 O   0  0  0  0  0  0  0  0  0  0  0  0
   16.4328   -8.6625    0.0000 O   0  0  0  0  0  0  0  0  0  0  0  0
   17.1473   -9.0750    0.0000 C   0  0  0  0  0  0  0  0  0  0  0  0
   17.8618   -8.6625    0.0000 C   0  0  0  0  0  0  0  0  0  0  0  0
   18.5762   -9.0750    0.0000 C   0  0  0  0  0  0  0  0  0  0  0  0
   18.5762   -9.9000    0.0000 C   0  0  0  0  0  0  0  0  0  0  0  0
   17.8618  -10.3125    0.0000 C   0  0  0  0  0  0  0  0  0  0  0  0
   17.1473   -9.9000    0.0000 C   0  0  0  0  0  0  0  0  0  0  0  0
  1  2  1  0  0  0  0
  2  3  1  0  0  0  0
  3  4  1  0  0  0  0
  4  5  1  0  0  0  0
  5  6  1  0  0  0  0
  6  7  1  0  0  0  0
  7  8  1  0  0  0  0
  8  9  1  0  0  0  0
  9 10  1  0  0  0  0
 10 11  1  0  0  0  0
 11 12  1  0  0  0  0
 12 13  1  0  0  0  0
 13 14  1  0  0  0  0
 14 15  1  0  0  0  0
 15 16  1  0  0  0  0
 16 17  2  0  0  0  0
 16 18  2  0  0  0  0
 16 19  1  0  0  0  0
 19 20  1  0  0  0  0
 20 21  4  0  0  0  0
 21 22  4  0  0  0  0
 22 23  4  0  0  0  0
 23 24  4  0  0  0  0
 24 25  4  0  0  0  0
 20 25  4  0  0  0  0
M  END
> <activity>
6.5

> <InChiKey>
UDKSLGIUCGAZTK-UHFFFAOYSA-N

$$$$

  Mrv2220 08292413132D          

 12 11  0  0  0  0            999 V2000
    1.2375    5.0013    0.0000 C   0  0  0  0  0  0  0  0  0  0  0  0
    1.6500    4.2868    0.0000 C   0  0  0  0  0  0  0  0  0  0  0  0
    1.2375    3.5724    0.0000 C   0  0  0  0  0  0  0  0  0  0  0  0
    1.6500    2.8579    0.0000 C   0  0  0  0  0  0  0  0  0  0  0  0
    1.2375    2.1434    0.0000 C   0  0  0  0  0  0  0  0  0  0  0  0
    1.6500    1.4289    0.0000 C   0  0  0  0  0  0  0  0  0  0  0  0
    1.2375    0.7145    0.0000 C   0  0  0  0  0  0  0  0  0  0  0  0
    0.5230    1.1270    0.0000 C   0  0  0  0  0  0  0  0  0  0  0  0
    1.9520    0.3020    0.0000 C   0  0  0  0  0  0  0  0  0  0  0  0
    0.8250    0.0000    0.0000 C   0  0  0  0  0  0  0  0  0  0  0  0
    1.2375   -0.7145    0.0000 O   0  0  0  0  0  0  0  0  0  0  0  0
    0.0000    0.0000    0.0000 O   0  0  0  0  0  0  0  0  0  0  0  0
  1  2  1  0  0  0  0
  2  3  1  0  0  0  0
  3  4  1  0  0  0  0
  4  5  1  0  0  0  0
  5  6  1  0  0  0  0
  6  7  1  0  0  0  0
  7  8  1  0  0  0  0
  7  9  1  0  0  0  0
  7 10  1  0  0  0  0
 10 11  2  0  0  0  0
 10 12  1  0  0  0  0
M  END
> <activity>
53.3

> <InChiKey>
IKNDGHRNXGEHTO-UHFFFAOYSA-N

$$$$

  Mrv2220 08292413132D          

 10 11  0  0  0  0            999 V2000
   -0.7145   -0.4125    0.0000 C   0  0  0  0  0  0  0  0  0  0  0  0
   -0.0000    0.0000    0.0000 C   0  0  0  0  0  0  0  0  0  0  0  0
    0.7145   -0.4125    0.0000 C   0  0  0  0  0  0  0  0  0  0  0  0
    1.4289    0.0000    0.0000 C   0  0  0  0  0  0  0  0  0  0  0  0
    1.4289    0.8250    0.0000 C   0  0  0  0  0  0  0  0  0  0  0  0
    0.7145    1.2375    0.0000 C   0  0  0  0  0  0  0  0  0  0  0  0
    0.5082    0.4125    0.0000 C   0  0  0  0  0  0  0  0  0  0  0  0
    0.0000    0.8250    0.0000 C   0  0  0  0  0  0  0  0  0  0  0  0
   -0.4372    1.5246    0.0000 C   0  0  0  0  0  0  0  0  0  0  0  0
   -0.8245    0.8538    0.0000 C   0  0  0  0  0  0  0  0  0  0  0  0
  1  2  2  0  0  0  0
  2  3  1  0  0  0  0
  3  4  1  0  0  0  0
  4  5  1  0  0  0  0
  5  6  1  0  0  0  0
  6  7  1  0  0  0  0
  3  7  1  0  0  0  0
  6  8  1  0  0  0  0
  2  8  1  0  0  0  0
  8  9  1  0  0  0  0
  8 10  1  0  0  0  0
M  END
> <activity>
6.9

> <InChiKey>
CRPUJAZIXJMDBK-UHFFFAOYSA-N

$$$$

  Mrv2220 08292413132D          

 37 40  0  0  0  0            999 V2000
    0.0787   -5.4177    0.0000 C   0  0  0  0  0  0  0  0  0  0  0  0
    0.8889   -5.5736    0.0000 O   0  0  0  0  0  0  0  0  0  0  0  0
    1.4289   -4.9500    0.0000 C   0  0  0  0  0  0  0  0  0  0  0  0
    2.2391   -5.1059    0.0000 C   0  0  0  0  0  0  0  0  0  0  0  0
    2.7792   -4.4823    0.0000 O   0  0  0  0  0  0  0  0  0  0  0  0
    3.5893   -4.6382    0.0000 C   0  0  0  0  0  0  0  0  0  0  0  0
    4.1294   -4.0145    0.0000 C   0  0  0  0  0  0  0  0  0  0  0  0
    3.8593   -3.2350    0.0000 C   0  0  0  0  0  0  0  0  0  0  0  0
    3.0492   -3.0791    0.0000 C   0  0  0  0  0  0  0  0  0  0  0  0
    3.2889   -2.2897    0.0000 C   0  0  0  0  0  0  0  0  0  0  0  0
    4.0925   -2.1026    0.0000 O   0  0  0  0  0  0  0  0  0  0  0  0
    2.7252   -1.6874    0.0000 N   0  0  0  0  0  0  0  0  0  0  0  0
    1.9217   -1.8744    0.0000 C   0  0  0  0  0  0  0  0  0  0  0  0
    1.6819   -2.6638    0.0000 C   0  0  0  0  0  0  0  0  0  0  0  0
    0.8784   -2.8509    0.0000 C   0  0  0  0  0  0  0  0  0  0  0  0
    0.3147   -2.2486    0.0000 C   0  0  0  0  0  0  0  0  0  0  0  0
   -0.4889   -2.4357    0.0000 C   0  0  0  0  0  0  0  0  0  0  0  0
   -1.0526   -1.8334    0.0000 O   0  0  0  0  0  0  0  0  0  0  0  0
   -0.7286   -3.2251    0.0000 O   0  0  0  0  0  0  0  0  0  0  0  0
    0.5544   -1.4592    0.0000 C   0  0  0  0  0  0  0  0  0  0  0  0
    1.3579   -1.2721    0.0000 C   0  0  0  0  0  0  0  0  0  0  0  0
    2.9788   -3.9011    0.0000 C   0  0  0  0  0  0  0  0  0  0  0  0
    2.1753   -4.0881    0.0000 C   0  0  0  0  0  0  0  0  0  0  0  0
    1.7491   -3.3818    0.0000 C   0  0  0  0  0  0  0  0  0  0  0  0
    2.2892   -2.7581    0.0000 C   0  0  0  0  0  0  0  0  0  0  0  0
    4.9395   -4.1704    0.0000 C   0  0  0  0  0  0  0  0  0  0  0  0
    5.4796   -3.5468    0.0000 O   0  0  0  0  0  0  0  0  0  0  0  0
    5.2096   -4.9500    0.0000 O   0  0  0  0  0  0  0  0  0  0  0  0
    6.0197   -5.1059    0.0000 C   0  0  0  0  0  0  0  0  0  0  0  0
    6.5598   -4.4823    0.0000 C   0  0  0  0  0  0  0  0  0  0  0  0
    7.3699   -4.6382    0.0000 C   0  0  0  0  0  0  0  0  0  0  0  0
    7.6400   -5.4177    0.0000 C   0  0  0  0  0  0  0  0  0  0  0  0
    7.0999   -6.0414    0.0000 C   0  0  0  0  0  0  0  0  0  0  0  0
    6.2897   -5.8855    0.0000 C   0  0  0  0  0  0  0  0  0  0  0  0
    7.5261   -6.7477    0.0000 C   0  0  0  0  0  0  0  0  0  0  0  0
    8.3296   -6.5607    0.0000 C   0  0  0  0  0  0  0  0  0  0  0  0
    8.4000   -5.7387    0.0000 C   0  0  0  0  0  0  0  0  0  0  0  0
  1  2  1  0  0  0  0
  2  3  1  0  0  0  0
  3  4  1  0  0  0  0
  4  5  1  0  0  0  0
  5  6  1  0  0  0  0
  6  7  1  0  0  0  0
  7  8  1  0  0  0  0
  8  9  1  0  0  0  0
  9 10  1  0  0  0  0
 10 11  2  0  0  0  0
 10 12  1  0  0  0  0
 12 13  1  0  0  0  0
 13 14  1  0  0  0  0
 14 15  1  0  0  0  0
 15 16  1  0  0  0  0
 16 17  1  0  0  0  0
 17 18  2  0  0  0  0
 17 19  1  0  0  0  0
 16 20  1  0  0  0  0
 20 21  1  0  0  0  0
 13 21  1  0  0  0  0
  9 22  1  0  0  0  0
 22 23  1  0  0  0  0
 23 24  1  0  0  0  0
 24 25  1  0  0  0  0
  9 25  1  0  0  0  0
  7 26  1  0  0  0  0
 26 27  2  0  0  0  0
 26 28  1  0  0  0  0
 28 29  1  0  0  0  0
 29 30  4  0  0  0  0
 30 31  4  0  0  0  0
 31 32  4  0  0  0  0
 32 33  4  0  0  0  0
 33 34  4  0  0  0  0
 29 34  4  0  0  0  0
 33 35  1  0  0  0  0
 35 36  1  0  0  0  0
 36 37  1  0  0  0  0
 32 37  1  0  0  0  0
M  END
> <activity>
4.8

> <InChiKey>
ZTWZVMIYIIVABD-UHFFFAOYSA-N

$$$$

  Mrv2220 08292413132D          

  8  8  0  0  0  0            999 V2000
    0.8566    2.1882    0.0000 O   0  0  0  0  0  0  0  0  0  0  0  0
    0.8566    1.3632    0.0000 C   0  0  0  0  0  0  0  0  0  0  0  0
    1.5999    1.0053    0.0000 C   0  0  0  0  0  0  0  0  0  0  0  0
    1.7834    0.2009    0.0000 C   0  0  0  0  0  0  0  0  0  0  0  0
    1.2691   -0.4441    0.0000 C   0  0  0  0  0  0  0  0  0  0  0  0
    0.4441   -0.4441    0.0000 C   0  0  0  0  0  0  0  0  0  0  0  0
   -0.0703    0.2009    0.0000 C   0  0  0  0  0  0  0  0  0  0  0  0
    0.1133    1.0053    0.0000 N   0  0  0  0  0  0  0  0  0  0  0  0
  1  2  2  0  0  0  0
  2  3  1  0  0  0  0
  3  4  1  0  0  0  0
  4  5  1  0  0  0  0
  5  6  1  0  0  0  0
  6  7  1  0  0  0  0
  7  8  1  0  0  0  0
  2  8  1  0  0  0  0
M  END
> <activity>
-0.2

> <InChiKey>
JBKVHLHDHHXQEQ-UHFFFAOYSA-N

$$$$

  Mrv2220 08292413132D          

 16 17  0  0  0  0            999 V2000
    0.8838    0.7541    0.0000 O   0  0  0  0  0  0  0  0  0  0  0  0
    1.1387   -0.0305    0.0000 C   0  0  0  0  0  0  0  0  0  0  0  0
    1.9233   -0.2854    0.0000 C   0  0  0  0  0  0  0  0  0  0  0  0
    2.6378    0.1271    0.0000 C   0  0  0  0  0  0  0  0  0  0  0  0
    3.3523   -0.2854    0.0000 C   0  0  0  0  0  0  0  0  0  0  0  0
    3.3523   -1.1104    0.0000 C   0  0  0  0  0  0  0  0  0  0  0  0
    2.6378   -1.5229    0.0000 C   0  0  0  0  0  0  0  0  0  0  0  0
    1.9233   -1.1104    0.0000 C   0  0  0  0  0  0  0  0  0  0  0  0
    1.1387   -1.3654    0.0000 C   0  0  0  0  0  0  0  0  0  0  0  0
    0.8838   -2.1500    0.0000 O   0  0  0  0  0  0  0  0  0  0  0  0
    0.6538   -0.6979    0.0000 N   0  0  0  0  0  0  0  0  0  0  0  0
   -0.1712   -0.6979    0.0000 S   0  0  0  0  0  0  0  0  0  0  0  0
   -0.5837   -1.4124    0.0000 C   0  0  0  0  0  0  0  0  0  0  0  0
   -0.9962   -2.1269    0.0000 Cl  0  0  0  0  0  0  0  0  0  0  0  0
   -1.2982   -0.9999    0.0000 Cl  0  0  0  0  0  0  0  0  0  0  0  0
    0.1308   -1.8249    0.0000 Cl  0  0  0  0  0  0  0  0  0  0  0  0
  1  2  2  0  0  0  0
  2  3  1  0  0  0  0
  3  4  1  0  0  0  0
  4  5  1  0  0  0  0
  5  6  2  0  0  0  0
  6  7  1  0  0  0  0
  7  8  1  0  0  0  0
  3  8  1  0  0  0  0
  8  9  1  0  0  0  0
  9 10  2  0  0  0  0
  9 11  1  0  0  0  0
  2 11  1  0  0  0  0
 11 12  1  0  0  0  0
 12 13  1  0  0  0  0
 13 14  1  0  0  0  0
 13 15  1  0  0  0  0
 13 16  1  0  0  0  0
M  END
> <activity>
89.1

> <InChiKey>
LDVVMCZRFWMZSG-UHFFFAOYSA-N

$$$$

  Mrv2220 08292413132D          

 18 20  0  0  0  0            999 V2000
    3.0892    1.5695    0.0000 N   0  0  0  0  0  0  0  0  0  0  0  0
    3.8037    1.1570    0.0000 C   0  0  0  0  0  0  0  0  0  0  0  0
    4.5181    1.5695    0.0000 O   0  0  0  0  0  0  0  0  0  0  0  0
    3.8037    0.3320    0.0000 N   0  0  0  0  0  0  0  0  0  0  0  0
    4.5470   -0.0260    0.0000 C   0  0  0  0  0  0  0  0  0  0  0  0
    5.1517    0.5352    0.0000 C   0  0  0  0  0  0  0  0  0  0  0  0
    5.9401    0.2920    0.0000 C   0  0  0  0  0  0  0  0  0  0  0  0
    6.1237   -0.5123    0.0000 C   0  0  0  0  0  0  0  0  0  0  0  0
    5.5189   -1.0735    0.0000 C   0  0  0  0  0  0  0  0  0  0  0  0
    4.7305   -0.8303    0.0000 C   0  0  0  0  0  0  0  0  0  0  0  0
    4.2162   -1.4753    0.0000 C   0  0  0  0  0  0  0  0  0  0  0  0
    3.3912   -1.4753    0.0000 C   0  0  0  0  0  0  0  0  0  0  0  0
    2.8768   -0.8303    0.0000 C   0  0  0  0  0  0  0  0  0  0  0  0
    2.0884   -1.0735    0.0000 C   0  0  0  0  0  0  0  0  0  0  0  0
    1.4837   -0.5123    0.0000 C   0  0  0  0  0  0  0  0  0  0  0  0
    1.6673    0.2920    0.0000 C   0  0  0  0  0  0  0  0  0  0  0  0
    2.4556    0.5352    0.0000 C   0  0  0  0  0  0  0  0  0  0  0  0
    3.0604   -0.0260    0.0000 C   0  0  0  0  0  0  0  0  0  0  0  0
  1  2  1  0  0  0  0
  2  3  2  0  0  0  0
  2  4  1  0  0  0  0
  4  5  1  0  0  0  0
  5  6  4  0  0  0  0
  6  7  4  0  0  0  0
  7  8  4  0  0  0  0
  8  9  4  0  0  0  0
  9 10  4  0  0  0  0
  5 10  4  0  0  0  0
 10 11  1  0  0  0  0
 11 12  2  0  0  0  0
 12 13  1  0  0  0  0
 13 14  4  0  0  0  0
 14 15  4  0  0  0  0
 15 16  4  0  0  0  0
 16 17  4  0  0  0  0
 17 18  4  0  0  0  0
 13 18  4  0  0  0  0
  4 18  1  0  0  0  0
M  END
> <activity>
56.6

> <InChiKey>
FFGPTBGBLSHEPO-UHFFFAOYSA-N

$$$$

  Mrv2220 08292413132D          

 14 15  0  0  0  0            999 V2000
   -1.8212   -2.1269    0.0000 C   0  0  0  0  0  0  0  0  0  0  0  0
   -1.4087   -1.4124    0.0000 O   0  0  0  0  0  0  0  0  0  0  0  0
   -0.5837   -1.4124    0.0000 C   0  0  0  0  0  0  0  0  0  0  0  0
   -0.1712   -2.1269    0.0000 O   0  0  0  0  0  0  0  0  0  0  0  0
   -0.1712   -0.6979    0.0000 N   0  0  0  0  0  0  0  0  0  0  0  0
    0.6538   -0.6979    0.0000 C   0  0  0  0  0  0  0  0  0  0  0  0
    1.1387   -0.0305    0.0000 N   0  0  0  0  0  0  0  0  0  0  0  0
    1.9233   -0.2854    0.0000 C   0  0  0  0  0  0  0  0  0  0  0  0
    2.6378    0.1271    0.0000 C   0  0  0  0  0  0  0  0  0  0  0  0
    3.3523   -0.2854    0.0000 C   0  0  0  0  0  0  0  0  0  0  0  0
    3.3523   -1.1104    0.0000 C   0  0  0  0  0  0  0  0  0  0  0  0
    2.6378   -1.5229    0.0000 C   0  0  0  0  0  0  0  0  0  0  0  0
    1.9233   -1.1104    0.0000 C   0  0  0  0  0  0  0  0  0  0  0  0
    1.1387   -1.3654    0.0000 N   0  0  0  0  0  0  0  0  0  0  0  0
  1  2  1  0  0  0  0
  2  3  1  0  0  0  0
  3  4  2  0  0  0  0
  3  5  1  0  0  0  0
  5  6  1  0  0  0  0
  6  7  4  0  0  0  0
  7  8  4  0  0  0  0
  8  9  4  0  0  0  0
  9 10  4  0  0  0  0
 10 11  4  0  0  0  0
 11 12  4  0  0  0  0
 12 13  4  0  0  0  0
  8 13  4  0  0  0  0
 13 14  4  0  0  0  0
  6 14  4  0  0  0  0
M  STY  1   1 DAT
M  SAL   1  1  14
M  SDT   1 MRV_IMPLICIT_H                                        
M  SDD   1     0.5304   -0.4125    DR    ALL  0       0  
M  SED   1 IMPL_H1
M  END
> <activity>
-20.8

> <InChiKey>
TWFZGCMQGLPBSX-UHFFFAOYSA-N

$$$$

  Mrv2220 08292413132D          

 26 27  0  0  0  0            999 V2000
   -1.6203   -3.0791    0.0000 C   0  0  0  0  0  0  0  0  0  0  0  0
   -0.8101   -2.9232    0.0000 C   0  0  0  0  0  0  0  0  0  0  0  0
   -0.2700   -3.5468    0.0000 C   0  0  0  0  0  0  0  0  0  0  0  0
    0.5401   -3.3909    0.0000 C   0  0  0  0  0  0  0  0  0  0  0  0
    1.0802   -4.0145    0.0000 N   0  0  0  0  0  0  0  0  0  0  0  0
    0.8101   -4.7941    0.0000 C   0  0  0  0  0  0  0  0  0  0  0  0
    0.0000   -4.9500    0.0000 C   0  0  0  0  0  0  0  0  0  0  0  0
   -0.2700   -5.7296    0.0000 C   0  0  0  0  0  0  0  0  0  0  0  0
   -1.0802   -5.8855    0.0000 C   0  0  0  0  0  0  0  0  0  0  0  0
    1.8903   -3.8586    0.0000 S   0  0  0  0  0  0  0  0  0  0  0  0
    2.4304   -4.4823    0.0000 N   0  0  0  0  0  0  0  0  0  0  0  0
    2.1604   -5.2618    0.0000 C   0  0  0  0  0  0  0  0  0  0  0  0
    3.2405   -4.3264    0.0000 C   0  0  0  0  0  0  0  0  0  0  0  0
    3.5106   -3.5468    0.0000 O   0  0  0  0  0  0  0  0  0  0  0  0
    3.7806   -4.9500    0.0000 O   0  0  0  0  0  0  0  0  0  0  0  0
    4.5908   -4.7941    0.0000 C   0  0  0  0  0  0  0  0  0  0  0  0
    4.8608   -4.0145    0.0000 C   0  0  0  0  0  0  0  0  0  0  0  0
    5.6709   -3.8586    0.0000 C   0  0  0  0  0  0  0  0  0  0  0  0
    6.2110   -4.4823    0.0000 C   0  0  0  0  0  0  0  0  0  0  0  0
    5.9410   -5.2618    0.0000 C   0  0  0  0  0  0  0  0  0  0  0  0
    5.1308   -5.4177    0.0000 C   0  0  0  0  0  0  0  0  0  0  0  0
    5.0288   -6.2364    0.0000 O   0  0  0  0  0  0  0  0  0  0  0  0
    5.7758   -6.5864    0.0000 C   0  0  0  0  0  0  0  0  0  0  0  0
    5.3496   -7.2928    0.0000 C   0  0  0  0  0  0  0  0  0  0  0  0
    6.4338   -7.0842    0.0000 C   0  0  0  0  0  0  0  0  0  0  0  0
    6.3396   -5.9841    0.0000 C   0  0  0  0  0  0  0  0  0  0  0  0
  1  2  1  0  0  0  0
  2  3  1  0  0  0  0
  3  4  1  0  0  0  0
  4  5  1  0  0  0  0
  5  6  1  0  0  0  0
  6  7  1  0  0  0  0
  7  8  1  0  0  0  0
  8  9  1  0  0  0  0
  5 10  1  0  0  0  0
 10 11  1  0  0  0  0
 11 12  1  0  0  0  0
 11 13  1  0  0  0  0
 13 14  2  0  0  0  0
 13 15  1  0  0  0  0
 15 16  1  0  0  0  0
 16 17  4  0  0  0  0
 17 18  4  0  0  0  0
 18 19  4  0  0  0  0
 19 20  4  0  0  0  0
 20 21  4  0  0  0  0
 16 21  4  0  0  0  0
 21 22  1  0  0  0  0
 22 23  1  0  0  0  0
 23 24  1  0  0  0  0
 23 25  1  0  0  0  0
 23 26  1  0  0  0  0
 20 26  1  0  0  0  0
M  END
> <activity>
67.5

> <InChiKey>
JLQUFIHWVLZVTJ-UHFFFAOYSA-N

$$$$

  Mrv2220 08292413132D          

 16 17  0  0  0  0            999 V2000
    0.0000   -1.6500    0.0000 C   0  0  0  0  0  0  0  0  0  0  0  0
    0.0000   -2.4750    0.0000 C   0  0  0  0  0  0  0  0  0  0  0  0
    0.7145   -2.8875    0.0000 C   0  0  0  0  0  0  0  0  0  0  0  0
    1.4289   -2.4750    0.0000 C   0  0  0  0  0  0  0  0  0  0  0  0
    1.4289   -1.6500    0.0000 O   0  0  0  0  0  0  0  0  0  0  0  0
    2.1434   -2.8875    0.0000 N   0  0  0  0  0  0  0  0  0  0  0  0
    2.8579   -2.4750    0.0000 C   0  0  0  0  0  0  0  0  0  0  0  0
    2.8579   -1.6500    0.0000 C   0  0  0  0  0  0  0  0  0  0  0  0
    3.5724   -1.2375    0.0000 C   0  0  0  0  0  0  0  0  0  0  0  0
    4.2868   -1.6500    0.0000 C   0  0  0  0  0  0  0  0  0  0  0  0
    4.2868   -2.4750    0.0000 C   0  0  0  0  0  0  0  0  0  0  0  0
    3.5724   -2.8875    0.0000 C   0  0  0  0  0  0  0  0  0  0  0  0
    0.7145   -3.7125    0.0000 S   0  0  0  0  0  0  0  0  0  0  0  0
    0.0000   -4.1250    0.0000 C   0  0  0  0  0  0  0  0  0  0  0  0
   -0.7145   -3.7125    0.0000 C   0  0  0  0  0  0  0  0  0  0  0  0
   -0.7145   -2.8875    0.0000 O   0  0  0  0  0  0  0  0  0  0  0  0
  1  2  1  0  0  0  0
  2  3  2  0  0  0  0
  3  4  1  0  0  0  0
  4  5  2  0  0  0  0
  4  6  1  0  0  0  0
  6  7  1  0  0  0  0
  7  8  4  0  0  0  0
  8  9  4  0  0  0  0
  9 10  4  0  0  0  0
 10 11  4  0  0  0  0
 11 12  4  0  0  0  0
  7 12  4  0  0  0  0
  3 13  1  0  0  0  0
 13 14  1  0  0  0  0
 14 15  1  0  0  0  0
 15 16  1  0  0  0  0
  2 16  1  0  0  0  0
M  END
> <activity>
36.7

> <InChiKey>
GYSSRZJIHXQEHQ-UHFFFAOYSA-N

$$$$

  Mrv2220 08292413132D          

 19 19  0  0  0  0            999 V2000
    0.0000    2.4750    0.0000 C   0  0  0  0  0  0  0  0  0  0  0  0
    0.7145    2.0625    0.0000 C   0  0  0  0  0  0  0  0  0  0  0  0
    1.4289    2.4750    0.0000 C   0  0  0  0  0  0  0  0  0  0  0  0
    0.7145    1.2375    0.0000 C   0  0  0  0  0  0  0  0  0  0  0  0
    1.4289    0.8250    0.0000 C   0  0  0  0  0  0  0  0  0  0  0  0
    1.4289   -0.0000    0.0000 C   0  0  0  0  0  0  0  0  0  0  0  0
    0.7145   -0.4125    0.0000 C   0  0  0  0  0  0  0  0  0  0  0  0
    0.7145   -1.2375    0.0000 C   0  0  0  0  0  0  0  0  0  0  0  0
   -0.0000   -1.6500    0.0000 O   0  0  0  0  0  0  0  0  0  0  0  0
    1.4289   -1.6500    0.0000 N   0  0  0  0  0  0  0  0  0  0  0  0
    1.4289   -2.4750    0.0000 C   0  0  0  0  0  0  0  0  0  0  0  0
    2.1434   -2.8875    0.0000 N   0  0  0  0  0  0  0  0  0  0  0  0
    0.7145   -2.8875    0.0000 N   0  0  0  0  0  0  0  0  0  0  0  0
    0.0000    0.0000    0.0000 C   0  0  0  0  0  0  0  0  0  0  0  0
    0.0000    0.8250    0.0000 C   0  0  0  0  0  0  0  0  0  0  0  0
   -0.7145    1.2375    0.0000 S   0  0  0  0  0  0  0  0  0  0  0  0
   -1.4289    1.6500    0.0000 C   0  0  0  0  0  0  0  0  0  0  0  0
   -0.3020    1.9520    0.0000 O   0  0  0  0  0  0  0  0  0  0  0  0
   -1.1270    0.5230    0.0000 O   0  0  0  0  0  0  0  0  0  0  0  0
  1  2  1  0  0  0  0
  2  3  1  0  0  0  0
  2  4  1  0  0  0  0
  4  5  4  0  0  0  0
  5  6  4  0  0  0  0
  6  7  4  0  0  0  0
  7  8  1  0  0  0  0
  8  9  2  0  0  0  0
  8 10  1  0  0  0  0
 10 11  2  0  0  0  0
 11 12  1  0  0  0  0
 11 13  1  0  0  0  0
  7 14  4  0  0  0  0
 14 15  4  0  0  0  0
  4 15  4  0  0  0  0
 15 16  1  0  0  0  0
 16 17  1  0  0  0  0
 16 18  2  0  0  0  0
 16 19  2  0  0  0  0
M  END
> <activity>
11.8

> <InChiKey>
IWXNYAIICFKCTM-UHFFFAOYSA-N

$$$$

  Mrv2220 08292413132D          

 26 28  0  0  0  0            999 V2000
    0.7145    2.0625    0.0000 C   0  0  0  0  0  0  0  0  0  0  0  0
    0.7145    1.2375    0.0000 C   0  0  0  0  0  0  0  0  0  0  0  0
    1.4289    0.8250    0.0000 C   0  0  0  0  0  0  0  0  0  0  0  0
    1.4289   -0.0000    0.0000 C   0  0  0  0  0  0  0  0  0  0  0  0
    0.7145   -0.4125    0.0000 C   0  0  0  0  0  0  0  0  0  0  0  0
    0.7145   -1.2375    0.0000 C   0  0  0  0  0  0  0  0  0  0  0  0
    1.3819   -1.7224    0.0000 C   0  0  0  0  0  0  0  0  0  0  0  0
    1.1270   -2.5070    0.0000 C   0  0  0  0  0  0  0  0  0  0  0  0
    1.6119   -3.1745    0.0000 C   0  0  0  0  0  0  0  0  0  0  0  0
    2.0968   -3.8419    0.0000 F   0  0  0  0  0  0  0  0  0  0  0  0
    0.9445   -3.6594    0.0000 F   0  0  0  0  0  0  0  0  0  0  0  0
    2.2793   -2.6896    0.0000 F   0  0  0  0  0  0  0  0  0  0  0  0
    0.3020   -2.5070    0.0000 N   0  0  0  0  0  0  0  0  0  0  0  0
    0.0470   -1.7224    0.0000 N   0  0  0  0  0  0  0  0  0  0  0  0
   -0.7376   -1.4675    0.0000 C   0  0  0  0  0  0  0  0  0  0  0  0
   -1.3507   -2.0195    0.0000 C   0  0  0  0  0  0  0  0  0  0  0  0
   -2.1353   -1.7646    0.0000 C   0  0  0  0  0  0  0  0  0  0  0  0
   -2.3068   -0.9576    0.0000 C   0  0  0  0  0  0  0  0  0  0  0  0
   -3.0915   -0.7027    0.0000 S   0  0  0  0  0  0  0  0  0  0  0  0
   -3.8761   -0.4477    0.0000 N   0  0  0  0  0  0  0  0  0  0  0  0
   -2.8365    0.0820    0.0000 O   0  0  0  0  0  0  0  0  0  0  0  0
   -3.3464   -1.4873    0.0000 O   0  0  0  0  0  0  0  0  0  0  0  0
   -1.6937   -0.4056    0.0000 C   0  0  0  0  0  0  0  0  0  0  0  0
   -0.9091   -0.6605    0.0000 C   0  0  0  0  0  0  0  0  0  0  0  0
    0.0000   -0.0000    0.0000 C   0  0  0  0  0  0  0  0  0  0  0  0
    0.0000    0.8250    0.0000 C   0  0  0  0  0  0  0  0  0  0  0  0
  1  2  1  0  0  0  0
  2  3  4  0  0  0  0
  3  4  4  0  0  0  0
  4  5  4  0  0  0  0
  5  6  1  0  0  0  0
  6  7  4  0  0  0  0
  7  8  4  0  0  0  0
  8  9  1  0  0  0  0
  9 10  1  0  0  0  0
  9 11  1  0  0  0  0
  9 12  1  0  0  0  0
  8 13  4  0  0  0  0
 13 14  4  0  0  0  0
  6 14  4  0  0  0  0
 14 15  1  0  0  0  0
 15 16  4  0  0  0  0
 16 17  4  0  0  0  0
 17 18  4  0  0  0  0
 18 19  1  0  0  0  0
 19 20  1  0  0  0  0
 19 21  2  0  0  0  0
 19 22  2  0  0  0  0
 18 23  4  0  0  0  0
 23 24  4  0  0  0  0
 15 24  4  0  0  0  0
  5 25  4  0  0  0  0
 25 26  4  0  0  0  0
  2 26  4  0  0  0  0
M  END
> <activity>
56.9

> <InChiKey>
RZEKVGVHFLEQIL-UHFFFAOYSA-N

$$$$

  Mrv2220 08292413132D          

 18 19  0  0  0  0            999 V2000
    2.5645    2.4750    0.0000 C   0  0  0  0  0  0  0  0  0  0  0  0
    3.2789    2.0625    0.0000 C   0  0  0  0  0  0  0  0  0  0  0  0
    3.9934    2.4750    0.0000 O   0  0  0  0  0  0  0  0  0  0  0  0
    3.2789    1.2375    0.0000 C   0  0  0  0  0  0  0  0  0  0  0  0
    3.9934    0.8250    0.0000 C   0  0  0  0  0  0  0  0  0  0  0  0
    3.9934    0.0000    0.0000 C   0  0  0  0  0  0  0  0  0  0  0  0
    4.7079   -0.4125    0.0000 C   0  0  0  0  0  0  0  0  0  0  0  0
    5.4223   -0.8250    0.0000 C   0  0  0  0  0  0  0  0  0  0  0  0
    4.2954   -1.1270    0.0000 C   0  0  0  0  0  0  0  0  0  0  0  0
    5.1204    0.3020    0.0000 C   0  0  0  0  0  0  0  0  0  0  0  0
    3.2789   -0.4125    0.0000 C   0  0  0  0  0  0  0  0  0  0  0  0
    2.5645    0.0000    0.0000 C   0  0  0  0  0  0  0  0  0  0  0  0
    2.5645    0.8250    0.0000 C   0  0  0  0  0  0  0  0  0  0  0  0
    1.7798    1.0799    0.0000 C   0  0  0  0  0  0  0  0  0  0  0  0
    1.2949    0.4125    0.0000 C   0  0  0  0  0  0  0  0  0  0  0  0
    1.7798   -0.2549    0.0000 C   0  0  0  0  0  0  0  0  0  0  0  0
    1.1726   -0.8134    0.0000 C   0  0  0  0  0  0  0  0  0  0  0  0
    1.9429   -1.0637    0.0000 C   0  0  0  0  0  0  0  0  0  0  0  0
  1  2  1  0  0  0  0
  2  3  2  0  0  0  0
  2  4  1  0  0  0  0
  4  5  4  0  0  0  0
  5  6  4  0  0  0  0
  6  7  1  0  0  0  0
  7  8  1  0  0  0  0
  7  9  1  0  0  0  0
  7 10  1  0  0  0  0
  6 11  4  0  0  0  0
 11 12  4  0  0  0  0
 12 13  4  0  0  0  0
  4 13  4  0  0  0  0
 13 14  1  0  0  0  0
 14 15  1  0  0  0  0
 15 16  1  0  0  0  0
 12 16  1  0  0  0  0
 16 17  1  0  0  0  0
 16 18  1  0  0  0  0
M  END
> <activity>
6.2

> <InChiKey>
IKTHMQYJOWTSJO-UHFFFAOYSA-N

$$$$

  Mrv2220 08292413132D          

 12 12  0  0  0  0            999 V2000
    0.7145    2.0625    0.0000 N   0  0  0  0  0  0  0  0  0  0  0  0
    0.7145    1.2375    0.0000 C   0  0  0  0  0  0  0  0  0  0  0  0
    1.4289    0.8250    0.0000 C   0  0  0  0  0  0  0  0  0  0  0  0
    1.4289   -0.0000    0.0000 C   0  0  0  0  0  0  0  0  0  0  0  0
    2.1434   -0.4125    0.0000 Cl  0  0  0  0  0  0  0  0  0  0  0  0
    0.7145   -0.4125    0.0000 C   0  0  0  0  0  0  0  0  0  0  0  0
    0.0000    0.0000    0.0000 C   0  0  0  0  0  0  0  0  0  0  0  0
   -0.7145   -0.4125    0.0000 C   0  0  0  0  0  0  0  0  0  0  0  0
   -0.7145   -1.2375    0.0000 O   0  0  0  0  0  0  0  0  0  0  0  0
   -1.4289    0.0000    0.0000 O   0  0  0  0  0  0  0  0  0  0  0  0
    0.0000    0.8250    0.0000 C   0  0  0  0  0  0  0  0  0  0  0  0
   -0.7145    1.2375    0.0000 Cl  0  0  0  0  0  0  0  0  0  0  0  0
  1  2  1  0  0  0  0
  2  3  4  0  0  0  0
  3  4  4  0  0  0  0
  4  5  1  0  0  0  0
  4  6  4  0  0  0  0
  6  7  4  0  0  0  0
  7  8  1  0  0  0  0
  8  9  2  0  0  0  0
  8 10  1  0  0  0  0
  7 11  4  0  0  0  0
  2 11  4  0  0  0  0
 11 12  1  0  0  0  0
M  END
> <activity>
93.9

> <InChiKey>
HSSBORCLYSCBJR-UHFFFAOYSA-N

$$$$

  Mrv2220 08292413132D          

 12 12  0  0  0  0            999 V2000
    0.7145    2.0625    0.0000 C   0  0  0  0  0  0  0  0  0  0  0  0
    0.7145    1.2375    0.0000 C   0  0  0  0  0  0  0  0  0  0  0  0
    1.4289    0.8250    0.0000 C   0  0  0  0  0  0  0  0  0  0  0  0
    1.4289   -0.0000    0.0000 C   0  0  0  0  0  0  0  0  0  0  0  0
    0.7145   -0.4125    0.0000 C   0  0  0  0  0  0  0  0  0  0  0  0
    0.7145   -1.2375    0.0000 S   0  0  0  0  0  0  0  0  0  0  0  0
   -0.1105   -1.2375    0.0000 O   0  0  0  0  0  0  0  0  0  0  0  0
    1.5395   -1.2375    0.0000 O   0  0  0  0  0  0  0  0  0  0  0  0
    0.7145   -2.0625    0.0000 N   0  0  0  0  0  0  0  0  0  0  0  0
    1.4289   -2.4750    0.0000 Cl  0  0  0  0  0  0  0  0  0  0  0  0
    0.0000    0.0000    0.0000 C   0  0  0  0  0  0  0  0  0  0  0  0
    0.0000    0.8250    0.0000 C   0  0  0  0  0  0  0  0  0  0  0  0
  1  2  1  0  0  0  0
  2  3  4  0  0  0  0
  3  4  4  0  0  0  0
  4  5  4  0  0  0  0
  5  6  1  0  0  0  0
  6  7  2  0  0  0  0
  6  8  2  0  0  0  0
  6  9  1  0  0  0  0
  9 10  1  0  0  0  0
  5 11  4  0  0  0  0
 11 12  4  0  0  0  0
  2 12  4  0  0  0  0
M  END
> <activity>
88.9

> <InChiKey>
NXTVQNIVUKXOIL-UHFFFAOYSA-N

$$$$

  Mrv2220 08292413132D          

 18 20  0  0  0  0            999 V2000
   -0.1035    1.3790    0.0000 Cl  0  0  0  0  0  0  0  0  0  0  0  0
    0.2672    0.5591    0.0000 C   0  0  0  0  0  0  0  0  0  0  0  0
    0.2608   -0.2659    0.0000 C   0  0  0  0  0  0  0  0  0  0  0  0
   -0.1748   -1.0520    0.0000 Cl  0  0  0  0  0  0  0  0  0  0  0  0
    0.8596   -0.6528    0.0000 C   0  0  0  0  0  0  0  0  0  0  0  0
    0.9464   -1.5172    0.0000 Cl  0  0  0  0  0  0  0  0  0  0  0  0
    1.5773   -0.2458    0.0000 C   0  0  0  0  0  0  0  0  0  0  0  0
    2.3599   -0.5068    0.0000 C   0  0  0  0  0  0  0  0  0  0  0  0
    2.6980   -1.2941    0.0000 Cl  0  0  0  0  0  0  0  0  0  0  0  0
    2.8500    0.1569    0.0000 C   0  0  0  0  0  0  0  0  0  0  0  0
    3.7037    0.1742    0.0000 Cl  0  0  0  0  0  0  0  0  0  0  0  0
    2.3702    0.8280    0.0000 C   0  0  0  0  0  0  0  0  0  0  0  0
    1.5836    0.5791    0.0000 C   0  0  0  0  0  0  0  0  0  0  0  0
    0.8724    0.9972    0.0000 C   0  0  0  0  0  0  0  0  0  0  0  0
    1.0098    1.8563    0.0000 Cl  0  0  0  0  0  0  0  0  0  0  0  0
    0.6598    0.1738    0.0000 C   0  0  0  0  0  0  0  0  0  0  0  0
   -0.2915    0.5170    0.0000 Cl  0  0  0  0  0  0  0  0  0  0  0  0
   -0.3061   -0.1395    0.0000 Cl  0  0  0  0  0  0  0  0  0  0  0  0
  1  2  1  0  0  0  0
  2  3  2  0  0  0  0
  3  4  1  0  0  0  0
  3  5  1  0  0  0  0
  5  6  1  0  0  0  0
  5  7  1  0  0  0  0
  7  8  1  0  0  0  0
  8  9  1  0  0  0  0
  8 10  1  0  0  0  0
 10 11  1  0  0  0  0
 10 12  1  0  0  0  0
 12 13  1  0  0  0  0
  7 13  1  0  0  0  0
 13 14  1  0  0  0  0
  2 14  1  0  0  0  0
 14 15  1  0  0  0  0
 14 16  1  0  0  0  0
  5 16  1  0  0  0  0
 16 17  1  0  0  0  0
 16 18  1  0  0  0  0
M  END
> <activity>
62.6

> <InChiKey>
BIWJNBZANLAXMG-UHFFFAOYSA-N

$$$$

  Mrv2220 08292413132D          

 19 20  0  0  0  0            999 V2000
   -0.5246    1.8502    0.0000 O   0  0  0  0  0  0  0  0  0  0  0  0
   -0.5435    1.0254    0.0000 C   0  0  0  0  0  0  0  0  0  0  0  0
   -1.2673    0.6294    0.0000 O   0  0  0  0  0  0  0  0  0  0  0  0
    0.2733    0.5639    0.0000 C   0  0  0  0  0  0  0  0  0  0  0  0
    0.2543   -0.2609    0.0000 C   0  0  0  0  0  0  0  0  0  0  0  0
   -0.5814   -0.6241    0.0000 C   0  0  0  0  0  0  0  0  0  0  0  0
   -0.6003   -1.4489    0.0000 O   0  0  0  0  0  0  0  0  0  0  0  0
   -1.2862   -0.1953    0.0000 O   0  0  0  0  0  0  0  0  0  0  0  0
    0.8472   -0.6569    0.0000 C   0  0  0  0  0  0  0  0  0  0  0  0
    0.8283   -1.4817    0.0000 Cl  0  0  0  0  0  0  0  0  0  0  0  0
    1.5709   -0.2609    0.0000 C   0  0  0  0  0  0  0  0  0  0  0  0
    2.2758   -0.6897    0.0000 Cl  0  0  0  0  0  0  0  0  0  0  0  0
    1.5899    0.5639    0.0000 C   0  0  0  0  0  0  0  0  0  0  0  0
    2.3136    0.9599    0.0000 Cl  0  0  0  0  0  0  0  0  0  0  0  0
    0.8850    0.9927    0.0000 C   0  0  0  0  0  0  0  0  0  0  0  0
    0.9040    1.8175    0.0000 Cl  0  0  0  0  0  0  0  0  0  0  0  0
    0.6599    0.1726    0.0000 C   0  0  0  0  0  0  0  0  0  0  0  0
   -0.0842    0.5289    0.0000 Cl  0  0  0  0  0  0  0  0  0  0  0  0
   -0.0997   -0.1492    0.0000 Cl  0  0  0  0  0  0  0  0  0  0  0  0
  1  2  2  0  0  0  0
  2  3  1  0  0  0  0
  2  4  1  0  0  0  0
  4  5  1  0  0  0  0
  5  6  1  0  0  0  0
  6  7  2  0  0  0  0
  6  8  1  0  0  0  0
  5  9  1  0  0  0  0
  9 10  1  0  0  0  0
  9 11  1  0  0  0  0
 11 12  1  0  0  0  0
 11 13  2  0  0  0  0
 13 14  1  0  0  0  0
 13 15  1  0  0  0  0
  4 15  1  0  0  0  0
 15 16  1  0  0  0  0
 15 17  1  0  0  0  0
  9 17  1  0  0  0  0
 17 18  1  0  0  0  0
 17 19  1  0  0  0  0
M  END
> <activity>
69.6

> <InChiKey>
DJKGDNKYTKCJKD-UHFFFAOYSA-N

$$$$

  Mrv2220 08292413132D          

 15 14  0  0  0  0            999 V2000
   -0.6039   -4.1250    0.0000 C   0  0  0  0  0  0  0  0  0  0  0  0
   -0.6039   -3.3000    0.0000 C   0  0  0  0  0  0  0  0  0  0  0  0
    0.1105   -2.8875    0.0000 O   0  0  0  0  0  0  0  0  0  0  0  0
    0.1105   -2.0625    0.0000 P   0  0  0  0  0  0  0  0  0  0  0  0
    0.9355   -2.0625    0.0000 S   0  0  0  0  0  0  0  0  0  0  0  0
   -0.7145   -2.0625    0.0000 O   0  0  0  0  0  0  0  0  0  0  0  0
   -1.1270   -1.3480    0.0000 C   0  0  0  0  0  0  0  0  0  0  0  0
   -0.7145   -0.6336    0.0000 C   0  0  0  0  0  0  0  0  0  0  0  0
    0.1105   -1.2375    0.0000 O   0  0  0  0  0  0  0  0  0  0  0  0
    0.8250   -0.8250    0.0000 C   0  0  0  0  0  0  0  0  0  0  0  0
    1.5395   -1.2375    0.0000 Cl  0  0  0  0  0  0  0  0  0  0  0  0
    0.8250    0.0000    0.0000 C   0  0  0  0  0  0  0  0  0  0  0  0
    0.8250    0.8250    0.0000 Cl  0  0  0  0  0  0  0  0  0  0  0  0
    1.6500   -0.0000    0.0000 Cl  0  0  0  0  0  0  0  0  0  0  0  0
    0.0000    0.0000    0.0000 Cl  0  0  0  0  0  0  0  0  0  0  0  0
  1  2  1  0  0  0  0
  2  3  1  0  0  0  0
  3  4  1  0  0  0  0
  4  5  2  0  0  0  0
  4  6  1  0  0  0  0
  6  7  1  0  0  0  0
  7  8  1  0  0  0  0
  4  9  1  0  0  0  0
  9 10  1  0  0  0  0
 10 11  1  0  0  0  0
 10 12  1  0  0  0  0
 12 13  1  0  0  0  0
 12 14  1  0  0  0  0
 12 15  1  0  0  0  0
M  END
> <activity>
89.6

> <InChiKey>
XFDJMIHUAHSGKG-UHFFFAOYSA-N

$$$$

  Mrv2220 08292413132D          

 15 16  0  0  0  0            999 V2000
    0.7145   -0.4125    0.0000 N   0  0  0  0  0  0  0  0  0  0  0  0
    0.7145   -1.2375    0.0000 C   0  0  0  0  0  0  0  0  0  0  0  0
    1.4289   -1.6500    0.0000 C   0  0  0  0  0  0  0  0  0  0  0  0
    1.4289   -2.4750    0.0000 N   0  0  0  0  0  0  0  0  0  0  0  0
    0.7145   -2.8875    0.0000 N   0  0  0  0  0  0  0  0  0  0  0  0
    0.7145   -3.7125    0.0000 C   0  0  0  0  0  0  0  0  0  0  0  0
    1.4289   -4.1250    0.0000 C   0  0  0  0  0  0  0  0  0  0  0  0
    1.4289   -4.9500    0.0000 C   0  0  0  0  0  0  0  0  0  0  0  0
    0.7145   -5.3625    0.0000 C   0  0  0  0  0  0  0  0  0  0  0  0
    0.0000   -4.9500    0.0000 C   0  0  0  0  0  0  0  0  0  0  0  0
    0.0000   -4.1250    0.0000 C   0  0  0  0  0  0  0  0  0  0  0  0
    0.0000   -2.4750    0.0000 C   0  0  0  0  0  0  0  0  0  0  0  0
   -0.7145   -2.8875    0.0000 O   0  0  0  0  0  0  0  0  0  0  0  0
    0.0000   -1.6500    0.0000 C   0  0  0  0  0  0  0  0  0  0  0  0
   -0.7145   -1.2375    0.0000 Cl  0  0  0  0  0  0  0  0  0  0  0  0
  1  2  1  0  0  0  0
  2  3  4  0  0  0  0
  3  4  4  0  0  0  0
  4  5  4  0  0  0  0
  5  6  1  0  0  0  0
  6  7  4  0  0  0  0
  7  8  4  0  0  0  0
  8  9  4  0  0  0  0
  9 10  4  0  0  0  0
 10 11  4  0  0  0  0
  6 11  4  0  0  0  0
  5 12  4  0  0  0  0
 12 13  2  0  0  0  0
 12 14  4  0  0  0  0
  2 14  4  0  0  0  0
 14 15  1  0  0  0  0
M  END
> <activity>
63.9

> <InChiKey>
WYKYKTKDBLFHCY-UHFFFAOYSA-N

$$$$

  Mrv2220 08292413132D          

 27 30  0  0  0  0            999 V2000
    0.8838    0.7541    0.0000 O   0  0  0  0  0  0  0  0  0  0  0  0
    1.1387   -0.0305    0.0000 C   0  0  0  0  0  0  0  0  0  0  0  0
    1.9233   -0.2854    0.0000 C   0  0  0  0  0  0  0  0  0  0  0  0
    2.6378    0.1271    0.0000 C   0  0  0  0  0  0  0  0  0  0  0  0
    3.3523   -0.2854    0.0000 C   0  0  0  0  0  0  0  0  0  0  0  0
    3.3523   -1.1104    0.0000 C   0  0  0  0  0  0  0  0  0  0  0  0
    2.6378   -1.5229    0.0000 C   0  0  0  0  0  0  0  0  0  0  0  0
    1.9233   -1.1104    0.0000 C   0  0  0  0  0  0  0  0  0  0  0  0
    1.1387   -1.3654    0.0000 C   0  0  0  0  0  0  0  0  0  0  0  0
    1.1387   -2.1904    0.0000 O   0  0  0  0  0  0  0  0  0  0  0  0
    0.6538   -0.6979    0.0000 C   0  0  0  0  0  0  0  0  0  0  0  0
   -0.1712   -0.6979    0.0000 C   0  0  0  0  0  0  0  0  0  0  0  0
   -0.5837    0.0165    0.0000 O   0  0  0  0  0  0  0  0  0  0  0  0
   -0.5837   -1.4124    0.0000 C   0  0  0  0  0  0  0  0  0  0  0  0
   -1.4087   -1.4124    0.0000 C   0  0  0  0  0  0  0  0  0  0  0  0
   -1.8212   -2.1269    0.0000 C   0  0  0  0  0  0  0  0  0  0  0  0
   -2.6462   -2.1269    0.0000 C   0  0  0  0  0  0  0  0  0  0  0  0
   -3.0587   -1.4124    0.0000 C   0  0  0  0  0  0  0  0  0  0  0  0
   -2.6462   -0.6979    0.0000 C   0  0  0  0  0  0  0  0  0  0  0  0
   -1.8212   -0.6979    0.0000 C   0  0  0  0  0  0  0  0  0  0  0  0
   -0.1712   -2.1269    0.0000 C   0  0  0  0  0  0  0  0  0  0  0  0
    0.6538   -2.1269    0.0000 C   0  0  0  0  0  0  0  0  0  0  0  0
    1.0663   -2.8414    0.0000 C   0  0  0  0  0  0  0  0  0  0  0  0
    0.6538   -3.5558    0.0000 C   0  0  0  0  0  0  0  0  0  0  0  0
    1.0663   -4.2703    0.0000 Cl  0  0  0  0  0  0  0  0  0  0  0  0
   -0.1712   -3.5558    0.0000 C   0  0  0  0  0  0  0  0  0  0  0  0
   -0.5837   -2.8414    0.0000 C   0  0  0  0  0  0  0  0  0  0  0  0
  1  2  2  0  0  0  0
  2  3  1  0  0  0  0
  3  4  4  0  0  0  0
  4  5  4  0  0  0  0
  5  6  4  0  0  0  0
  6  7  4  0  0  0  0
  7  8  4  0  0  0  0
  3  8  4  0  0  0  0
  8  9  1  0  0  0  0
  9 10  2  0  0  0  0
  9 11  1  0  0  0  0
  2 11  1  0  0  0  0
 11 12  1  0  0  0  0
 12 13  2  0  0  0  0
 12 14  1  0  0  0  0
 14 15  1  0  0  0  0
 15 16  4  0  0  0  0
 16 17  4  0  0  0  0
 17 18  4  0  0  0  0
 18 19  4  0  0  0  0
 19 20  4  0  0  0  0
 15 20  4  0  0  0  0
 14 21  1  0  0  0  0
 21 22  4  0  0  0  0
 22 23  4  0  0  0  0
 23 24  4  0  0  0  0
 24 25  1  0  0  0  0
 24 26  4  0  0  0  0
 26 27  4  0  0  0  0
 21 27  4  0  0  0  0
M  END
> <activity>
90.4

> <InChiKey>
UDHXJZHVNHGCEC-UHFFFAOYSA-N

$$$$

  Mrv2220 08292413132D          

  7  7  0  0  0  0            999 V2000
    0.7145    2.0625    0.0000 C   0  0  0  0  0  0  0  0  0  0  0  0
    0.7145    1.2375    0.0000 C   0  0  0  0  0  0  0  0  0  0  0  0
    1.4289    0.8250    0.0000 C   0  0  0  0  0  0  0  0  0  0  0  0
    1.4289   -0.0000    0.0000 C   0  0  0  0  0  0  0  0  0  0  0  0
    0.7145   -0.4125    0.0000 C   0  0  0  0  0  0  0  0  0  0  0  0
    0.0000    0.0000    0.0000 C   0  0  0  0  0  0  0  0  0  0  0  0
    0.0000    0.8250    0.0000 C   0  0  0  0  0  0  0  0  0  0  0  0
  1  2  1  0  0  0  0
  2  3  4  0  0  0  0
  3  4  4  0  0  0  0
  4  5  4  0  0  0  0
  5  6  4  0  0  0  0
  6  7  4  0  0  0  0
  2  7  4  0  0  0  0
M  END
> <activity>
11.3

> <InChiKey>
YXFVVABEGXRONW-UHFFFAOYSA-N

$$$$

  Mrv2220 08292413132D          

 14 14  0  0  0  0            999 V2000
    0.0000   -2.4750    0.0000 C   0  0  0  0  0  0  0  0  0  0  0  0
    0.7145   -2.8875    0.0000 C   0  0  0  0  0  0  0  0  0  0  0  0
    0.7145   -3.7125    0.0000 C   0  0  0  0  0  0  0  0  0  0  0  0
    1.4289   -2.4750    0.0000 O   0  0  0  0  0  0  0  0  0  0  0  0
    2.1434   -2.8875    0.0000 C   0  0  0  0  0  0  0  0  0  0  0  0
    2.1434   -3.7125    0.0000 O   0  0  0  0  0  0  0  0  0  0  0  0
    2.8579   -2.4750    0.0000 N   0  0  0  0  0  0  0  0  0  0  0  0
    3.5724   -2.8875    0.0000 C   0  0  0  0  0  0  0  0  0  0  0  0
    4.2868   -2.4750    0.0000 C   0  0  0  0  0  0  0  0  0  0  0  0
    5.0013   -2.8875    0.0000 C   0  0  0  0  0  0  0  0  0  0  0  0
    5.0013   -3.7125    0.0000 C   0  0  0  0  0  0  0  0  0  0  0  0
    4.2868   -4.1250    0.0000 C   0  0  0  0  0  0  0  0  0  0  0  0
    4.2868   -4.9500    0.0000 Cl  0  0  0  0  0  0  0  0  0  0  0  0
    3.5724   -3.7125    0.0000 C   0  0  0  0  0  0  0  0  0  0  0  0
  1  2  1  0  0  0  0
  2  3  1  0  0  0  0
  2  4  1  0  0  0  0
  4  5  1  0  0  0  0
  5  6  2  0  0  0  0
  5  7  1  0  0  0  0
  7  8  1  0  0  0  0
  8  9  4  0  0  0  0
  9 10  4  0  0  0  0
 10 11  4  0  0  0  0
 11 12  4  0  0  0  0
 12 13  1  0  0  0  0
 12 14  4  0  0  0  0
  8 14  4  0  0  0  0
M  END
> <activity>
74.2

> <InChiKey>
CWJSHJJYOPWUGX-UHFFFAOYSA-N

$$$$

  Mrv2220 08292413132D          

 18 18  0  0  0  0            999 V2000
   -1.4289    4.1250    0.0000 C   0  0  0  0  0  0  0  0  0  0  0  0
   -0.7145    3.7125    0.0000 C   0  0  0  0  0  0  0  0  0  0  0  0
   -0.7145    2.8875    0.0000 O   0  0  0  0  0  0  0  0  0  0  0  0
    0.0000    2.4750    0.0000 P   0  0  0  0  0  0  0  0  0  0  0  0
   -0.4125    1.7605    0.0000 S   0  0  0  0  0  0  0  0  0  0  0  0
    0.4125    3.1895    0.0000 O   0  0  0  0  0  0  0  0  0  0  0  0
    1.2375    3.1895    0.0000 C   0  0  0  0  0  0  0  0  0  0  0  0
    1.6500    2.4750    0.0000 C   0  0  0  0  0  0  0  0  0  0  0  0
    0.7145    2.0625    0.0000 O   0  0  0  0  0  0  0  0  0  0  0  0
    0.7145    1.2375    0.0000 C   0  0  0  0  0  0  0  0  0  0  0  0
    1.4289    0.8250    0.0000 N   0  0  0  0  0  0  0  0  0  0  0  0
    1.4289   -0.0000    0.0000 C   0  0  0  0  0  0  0  0  0  0  0  0
    2.1434   -0.4125    0.0000 Cl  0  0  0  0  0  0  0  0  0  0  0  0
    0.7145   -0.4125    0.0000 C   0  0  0  0  0  0  0  0  0  0  0  0
    0.7145   -1.2375    0.0000 Cl  0  0  0  0  0  0  0  0  0  0  0  0
    0.0000    0.0000    0.0000 C   0  0  0  0  0  0  0  0  0  0  0  0
    0.0000    0.8250    0.0000 C   0  0  0  0  0  0  0  0  0  0  0  0
   -0.7145    1.2375    0.0000 Cl  0  0  0  0  0  0  0  0  0  0  0  0
  1  2  1  0  0  0  0
  2  3  1  0  0  0  0
  3  4  1  0  0  0  0
  4  5  2  0  0  0  0
  4  6  1  0  0  0  0
  6  7  1  0  0  0  0
  7  8  1  0  0  0  0
  4  9  1  0  0  0  0
  9 10  1  0  0  0  0
 10 11  4  0  0  0  0
 11 12  4  0  0  0  0
 12 13  1  0  0  0  0
 12 14  4  0  0  0  0
 14 15  1  0  0  0  0
 14 16  4  0  0  0  0
 16 17  4  0  0  0  0
 10 17  4  0  0  0  0
 17 18  1  0  0  0  0
M  END
> <activity>
102.8

> <InChiKey>
SBPBAQFWLVIOKP-UHFFFAOYSA-N

$$$$

  Mrv2220 08292413132D          

 18 18  0  0  0  0            999 V2000
   -1.4289    4.1250    0.0000 C   0  0  0  0  0  0  0  0  0  0  0  0
   -0.7145    3.7125    0.0000 C   0  0  0  0  0  0  0  0  0  0  0  0
   -0.7145    2.8875    0.0000 O   0  0  0  0  0  0  0  0  0  0  0  0
    0.0000    2.4750    0.0000 P   0  0  0  0  0  0  0  0  0  0  0  0
   -0.4125    1.7605    0.0000 O   0  0  0  0  0  0  0  0  0  0  0  0
    0.4125    3.1895    0.0000 O   0  0  0  0  0  0  0  0  0  0  0  0
    1.2375    3.1895    0.0000 C   0  0  0  0  0  0  0  0  0  0  0  0
    1.6500    2.4750    0.0000 C   0  0  0  0  0  0  0  0  0  0  0  0
    0.7145    2.0625    0.0000 O   0  0  0  0  0  0  0  0  0  0  0  0
    0.7145    1.2375    0.0000 C   0  0  0  0  0  0  0  0  0  0  0  0
    1.4289    0.8250    0.0000 N   0  0  0  0  0  0  0  0  0  0  0  0
    1.4289   -0.0000    0.0000 C   0  0  0  0  0  0  0  0  0  0  0  0
    2.1434   -0.4125    0.0000 Cl  0  0  0  0  0  0  0  0  0  0  0  0
    0.7145   -0.4125    0.0000 C   0  0  0  0  0  0  0  0  0  0  0  0
    0.7145   -1.2375    0.0000 Cl  0  0  0  0  0  0  0  0  0  0  0  0
    0.0000    0.0000    0.0000 C   0  0  0  0  0  0  0  0  0  0  0  0
    0.0000    0.8250    0.0000 C   0  0  0  0  0  0  0  0  0  0  0  0
   -0.7145    1.2375    0.0000 Cl  0  0  0  0  0  0  0  0  0  0  0  0
  1  2  1  0  0  0  0
  2  3  1  0  0  0  0
  3  4  1  0  0  0  0
  4  5  2  0  0  0  0
  4  6  1  0  0  0  0
  6  7  1  0  0  0  0
  7  8  1  0  0  0  0
  4  9  1  0  0  0  0
  9 10  1  0  0  0  0
 10 11  4  0  0  0  0
 11 12  4  0  0  0  0
 12 13  1  0  0  0  0
 12 14  4  0  0  0  0
 14 15  1  0  0  0  0
 14 16  4  0  0  0  0
 16 17  4  0  0  0  0
 10 17  4  0  0  0  0
 17 18  1  0  0  0  0
M  END
> <activity>
99.4

> <InChiKey>
OTMOUPHCTWPNSL-UHFFFAOYSA-N

$$$$

  Mrv2220 08292413132D          

 16 16  0  0  0  0            999 V2000
   -0.7145    3.7125    0.0000 C   0  0  0  0  0  0  0  0  0  0  0  0
   -0.7145    2.8875    0.0000 O   0  0  0  0  0  0  0  0  0  0  0  0
    0.0000    2.4750    0.0000 P   0  0  0  0  0  0  0  0  0  0  0  0
   -0.4125    1.7605    0.0000 S   0  0  0  0  0  0  0  0  0  0  0  0
    0.4125    3.1895    0.0000 O   0  0  0  0  0  0  0  0  0  0  0  0
    1.2375    3.1895    0.0000 C   0  0  0  0  0  0  0  0  0  0  0  0
    0.7145    2.0625    0.0000 O   0  0  0  0  0  0  0  0  0  0  0  0
    0.7145    1.2375    0.0000 C   0  0  0  0  0  0  0  0  0  0  0  0
    1.4289    0.8250    0.0000 N   0  0  0  0  0  0  0  0  0  0  0  0
    1.4289   -0.0000    0.0000 C   0  0  0  0  0  0  0  0  0  0  0  0
    2.1434   -0.4125    0.0000 Cl  0  0  0  0  0  0  0  0  0  0  0  0
    0.7145   -0.4125    0.0000 C   0  0  0  0  0  0  0  0  0  0  0  0
    0.7145   -1.2375    0.0000 Cl  0  0  0  0  0  0  0  0  0  0  0  0
    0.0000    0.0000    0.0000 C   0  0  0  0  0  0  0  0  0  0  0  0
    0.0000    0.8250    0.0000 C   0  0  0  0  0  0  0  0  0  0  0  0
   -0.7145    1.2375    0.0000 Cl  0  0  0  0  0  0  0  0  0  0  0  0
  1  2  1  0  0  0  0
  2  3  1  0  0  0  0
  3  4  2  0  0  0  0
  3  5  1  0  0  0  0
  5  6  1  0  0  0  0
  3  7  1  0  0  0  0
  7  8  1  0  0  0  0
  8  9  4  0  0  0  0
  9 10  4  0  0  0  0
 10 11  1  0  0  0  0
 10 12  4  0  0  0  0
 12 13  1  0  0  0  0
 12 14  4  0  0  0  0
 14 15  4  0  0  0  0
  8 15  4  0  0  0  0
 15 16  1  0  0  0  0
M  END
> <activity>
99.6

> <InChiKey>
HRBKVYFZANMGRE-UHFFFAOYSA-N

$$$$

  Mrv2220 08292413132D          

 18 18  0  0  0  0            999 V2000
    0.0000    3.3000    0.0000 C   0  0  0  0  0  0  0  0  0  0  0  0
    0.0000    2.4750    0.0000 O   0  0  0  0  0  0  0  0  0  0  0  0
    0.7145    2.0625    0.0000 C   0  0  0  0  0  0  0  0  0  0  0  0
    1.4289    2.4750    0.0000 O   0  0  0  0  0  0  0  0  0  0  0  0
    0.7145    1.2375    0.0000 C   0  0  0  0  0  0  0  0  0  0  0  0
    1.4289    0.8250    0.0000 C   0  0  0  0  0  0  0  0  0  0  0  0
    2.1434    1.2375    0.0000 Cl  0  0  0  0  0  0  0  0  0  0  0  0
    1.4289   -0.0000    0.0000 C   0  0  0  0  0  0  0  0  0  0  0  0
    2.1434   -0.4125    0.0000 Cl  0  0  0  0  0  0  0  0  0  0  0  0
    0.7145   -0.4125    0.0000 C   0  0  0  0  0  0  0  0  0  0  0  0
    0.7145   -1.2375    0.0000 C   0  0  0  0  0  0  0  0  0  0  0  0
    1.4289   -1.6500    0.0000 O   0  0  0  0  0  0  0  0  0  0  0  0
   -0.0000   -1.6500    0.0000 O   0  0  0  0  0  0  0  0  0  0  0  0
   -0.0000   -2.4750    0.0000 C   0  0  0  0  0  0  0  0  0  0  0  0
    0.0000    0.0000    0.0000 C   0  0  0  0  0  0  0  0  0  0  0  0
   -0.7145   -0.4125    0.0000 Cl  0  0  0  0  0  0  0  0  0  0  0  0
    0.0000    0.8250    0.0000 C   0  0  0  0  0  0  0  0  0  0  0  0
   -0.7145    1.2375    0.0000 Cl  0  0  0  0  0  0  0  0  0  0  0  0
  1  2  1  0  0  0  0
  2  3  1  0  0  0  0
  3  4  2  0  0  0  0
  3  5  1  0  0  0  0
  5  6  4  0  0  0  0
  6  7  1  0  0  0  0
  6  8  4  0  0  0  0
  8  9  1  0  0  0  0
  8 10  4  0  0  0  0
 10 11  1  0  0  0  0
 11 12  2  0  0  0  0
 11 13  1  0  0  0  0
 13 14  1  0  0  0  0
 10 15  4  0  0  0  0
 15 16  1  0  0  0  0
 15 17  4  0  0  0  0
  5 17  4  0  0  0  0
 17 18  1  0  0  0  0
M  END
> <activity>
99.7

> <InChiKey>
NPOJQCVWMSKXDN-UHFFFAOYSA-N

$$$$

  Mrv2220 08292413132D          

 19 21  0  0  0  0            999 V2000
    1.4289   -2.4750    0.0000 O   0  0  0  0  0  0  0  0  0  0  0  0
    1.4289   -1.6500    0.0000 C   0  0  0  0  0  0  0  0  0  0  0  0
    0.7145   -1.2375    0.0000 C   0  0  0  0  0  0  0  0  0  0  0  0
    0.7145   -0.4125    0.0000 C   0  0  0  0  0  0  0  0  0  0  0  0
    0.0000    0.0000    0.0000 C   0  0  0  0  0  0  0  0  0  0  0  0
   -0.7145   -0.4125    0.0000 C   0  0  0  0  0  0  0  0  0  0  0  0
   -1.4289    0.0000    0.0000 C   0  0  0  0  0  0  0  0  0  0  0  0
   -1.4289    0.8250    0.0000 C   0  0  0  0  0  0  0  0  0  0  0  0
   -0.7145    1.2375    0.0000 C   0  0  0  0  0  0  0  0  0  0  0  0
    0.0000    0.8250    0.0000 C   0  0  0  0  0  0  0  0  0  0  0  0
    1.4289    0.0000    0.0000 O   0  0  0  0  0  0  0  0  0  0  0  0
    2.1434   -0.4125    0.0000 C   0  0  0  0  0  0  0  0  0  0  0  0
    2.8579    0.0000    0.0000 C   0  0  0  0  0  0  0  0  0  0  0  0
    3.5724   -0.4125    0.0000 C   0  0  0  0  0  0  0  0  0  0  0  0
    4.2868   -0.0000    0.0000 O   0  0  0  0  0  0  0  0  0  0  0  0
    3.5724   -1.2375    0.0000 C   0  0  0  0  0  0  0  0  0  0  0  0
    2.8579   -1.6500    0.0000 C   0  0  0  0  0  0  0  0  0  0  0  0
    2.8579   -2.4750    0.0000 O   0  0  0  0  0  0  0  0  0  0  0  0
    2.1434   -1.2375    0.0000 C   0  0  0  0  0  0  0  0  0  0  0  0
  1  2  2  0  0  0  0
  2  3  4  0  0  0  0
  3  4  4  0  0  0  0
  4  5  1  0  0  0  0
  5  6  4  0  0  0  0
  6  7  4  0  0  0  0
  7  8  4  0  0  0  0
  8  9  4  0  0  0  0
  9 10  4  0  0  0  0
  5 10  4  0  0  0  0
  4 11  4  0  0  0  0
 11 12  4  0  0  0  0
 12 13  4  0  0  0  0
 13 14  4  0  0  0  0
 14 15  1  0  0  0  0
 14 16  4  0  0  0  0
 16 17  4  0  0  0  0
 17 18  1  0  0  0  0
 17 19  4  0  0  0  0
  2 19  4  0  0  0  0
 12 19  4  0  0  0  0
M  END
> <activity>
94.7

> <InChiKey>
RTIXKCRFFJGDFG-UHFFFAOYSA-N

$$$$

  Mrv2220 08292413132D          

 30 34  0  0  0  0            999 V2000
   -1.2971   -0.0227    0.0000 N   0  0  0  0  0  0  0  0  0  0  0  0
   -0.5696   -0.4117    0.0000 C   0  0  0  0  0  0  0  0  0  0  0  0
   -0.5427   -1.2363    0.0000 C   0  0  0  0  0  0  0  0  0  0  0  0
    0.1849   -1.6253    0.0000 C   0  0  0  0  0  0  0  0  0  0  0  0
    0.8855   -1.1897    0.0000 C   0  0  0  0  0  0  0  0  0  0  0  0
    0.9080   -0.3650    0.0000 C   0  0  0  0  0  0  0  0  0  0  0  0
    0.1311    0.0238    0.0000 C   0  0  0  0  0  0  0  0  0  0  0  0
    1.5668    0.1316    0.0000 C   0  0  0  0  0  0  0  0  0  0  0  0
    1.4052    0.9406    0.0000 C   0  0  0  0  0  0  0  0  0  0  0  0
    0.6237    1.2052    0.0000 C   0  0  0  0  0  0  0  0  0  0  0  0
    0.4621    2.0142    0.0000 C   0  0  0  0  0  0  0  0  0  0  0  0
    1.0820    2.5587    0.0000 C   0  0  0  0  0  0  0  0  0  0  0  0
    1.8634    2.2941    0.0000 C   0  0  0  0  0  0  0  0  0  0  0  0
    2.0250    1.4851    0.0000 C   0  0  0  0  0  0  0  0  0  0  0  0
    2.3658   -0.0738    0.0000 N   0  0  0  0  0  0  0  0  0  0  0  0
    2.7034   -0.8266    0.0000 C   0  0  0  0  0  0  0  0  0  0  0  0
    3.5281   -0.8491    0.0000 N   0  0  0  0  0  0  0  0  0  0  0  0
    3.9599   -0.1461    0.0000 C   0  0  0  0  0  0  0  0  0  0  0  0
    3.5670    0.5793    0.0000 O   0  0  0  0  0  0  0  0  0  0  0  0
    4.7846   -0.1686    0.0000 C   0  0  0  0  0  0  0  0  0  0  0  0
    5.2164    0.5344    0.0000 C   0  0  0  0  0  0  0  0  0  0  0  0
    6.0411    0.5119    0.0000 C   0  0  0  0  0  0  0  0  0  0  0  0
    6.4339   -0.2135    0.0000 C   0  0  0  0  0  0  0  0  0  0  0  0
    6.0021   -0.9165    0.0000 N   0  0  0  0  0  0  0  0  0  0  0  0
    5.1774   -0.8940    0.0000 C   0  0  0  0  0  0  0  0  0  0  0  0
    2.3253   -1.5599    0.0000 C   0  0  0  0  0  0  0  0  0  0  0  0
    2.8219   -2.2186    0.0000 O   0  0  0  0  0  0  0  0  0  0  0  0
    1.5163   -1.7215    0.0000 N   0  0  0  0  0  0  0  0  0  0  0  0
    1.2055   -2.4857    0.0000 C   0  0  0  0  0  0  0  0  0  0  0  0
    0.3826   -2.4262    0.0000 C   0  0  0  0  0  0  0  0  0  0  0  0
  1  2  1  0  0  0  0
  2  3  4  0  0  0  0
  3  4  4  0  0  0  0
  4  5  4  0  0  0  0
  5  6  4  0  0  0  0
  6  7  4  0  0  0  0
  2  7  4  0  0  0  0
  6  8  1  0  0  0  0
  8  9  1  0  0  0  0
  9 10  4  0  0  0  0
 10 11  4  0  0  0  0
 11 12  4  0  0  0  0
 12 13  4  0  0  0  0
 13 14  4  0  0  0  0
  9 14  4  0  0  0  0
  8 15  2  0  0  0  0
 15 16  1  0  0  0  0
 16 17  1  0  0  0  0
 17 18  1  0  0  0  0
 18 19  2  0  0  0  0
 18 20  1  0  0  0  0
 20 21  4  0  0  0  0
 21 22  4  0  0  0  0
 22 23  4  0  0  0  0
 23 24  4  0  0  0  0
 24 25  4  0  0  0  0
 20 25  4  0  0  0  0
 16 26  1  0  0  0  0
 26 27  2  0  0  0  0
 26 28  1  0  0  0  0
  5 28  1  0  0  0  0
 28 29  1  0  0  0  0
 29 30  1  0  0  0  0
  4 30  1  0  0  0  0
M  END
> <activity>
40.1

> <InChiKey>
XGXOSJSGDNPEEF-UHFFFAOYSA-N

$$$$

  Mrv2220 08292413132D          

 20 22  0  0  0  0            999 V2000
   -1.9799    0.9543    0.0000 C   0  0  0  0  0  0  0  0  0  0  0  0
   -1.9799    1.7793    0.0000 C   0  0  0  0  0  0  0  0  0  0  0  0
   -2.6944    2.1918    0.0000 C   0  0  0  0  0  0  0  0  0  0  0  0
   -2.6944    3.0168    0.0000 C   0  0  0  0  0  0  0  0  0  0  0  0
   -1.9799    3.4293    0.0000 C   0  0  0  0  0  0  0  0  0  0  0  0
   -1.2654    3.0168    0.0000 C   0  0  0  0  0  0  0  0  0  0  0  0
   -1.2654    2.1918    0.0000 C   0  0  0  0  0  0  0  0  0  0  0  0
   -0.5510    1.7793    0.0000 C   0  0  0  0  0  0  0  0  0  0  0  0
   -0.5510    0.9543    0.0000 O   0  0  0  0  0  0  0  0  0  0  0  0
    0.1635    0.5418    0.0000 C   0  0  0  0  0  0  0  0  0  0  0  0
    0.1635   -0.2832    0.0000 C   0  0  0  0  0  0  0  0  0  0  0  0
    0.8780   -0.6957    0.0000 C   0  0  0  0  0  0  0  0  0  0  0  0
    0.8780   -1.5207    0.0000 C   0  0  0  0  0  0  0  0  0  0  0  0
    1.5925   -1.9332    0.0000 C   0  0  0  0  0  0  0  0  0  0  0  0
    0.1635   -1.9332    0.0000 C   0  0  0  0  0  0  0  0  0  0  0  0
    1.5925   -0.2832    0.0000 C   0  0  0  0  0  0  0  0  0  0  0  0
    1.5925    0.5418    0.0000 C   0  0  0  0  0  0  0  0  0  0  0  0
    0.8780    0.9543    0.0000 C   0  0  0  0  0  0  0  0  0  0  0  0
    0.8780    1.7793    0.0000 C   0  0  0  0  0  0  0  0  0  0  0  0
    0.6717    0.1293    0.0000 O   0  0  0  0  0  0  0  0  0  0  0  0
  1  2  1  0  0  0  0
  2  3  4  0  0  0  0
  3  4  4  0  0  0  0
  4  5  4  0  0  0  0
  5  6  4  0  0  0  0
  6  7  4  0  0  0  0
  2  7  4  0  0  0  0
  7  8  1  0  0  0  0
  8  9  1  0  0  0  0
  9 10  1  0  0  0  0
 10 11  1  0  0  0  0
 11 12  1  0  0  0  0
 12 13  1  0  0  0  0
 13 14  1  0  0  0  0
 13 15  1  0  0  0  0
 12 16  1  0  0  0  0
 16 17  1  0  0  0  0
 17 18  1  0  0  0  0
 10 18  1  0  0  0  0
 18 19  1  0  0  0  0
 18 20  1  0  0  0  0
 12 20  1  0  0  0  0
M  END
> <activity>
45.9

> <InChiKey>
QMTNOLKHSWIQBE-UHFFFAOYSA-N

$$$$

  Mrv2220 08292413132D          

 13 12  0  0  0  0            999 V2000
   -0.1914   -2.3645    0.0000 O   0  0  0  0  0  0  0  0  0  0  0  0
    0.5230   -1.9520    0.0000 C   0  0  0  0  0  0  0  0  0  0  0  0
    1.2375   -2.3645    0.0000 O   0  0  0  0  0  0  0  0  0  0  0  0
    0.5230   -1.1270    0.0000 C   0  0  0  0  0  0  0  0  0  0  0  0
    1.2375   -0.7145    0.0000 C   0  0  0  0  0  0  0  0  0  0  0  0
    1.6500   -1.4289    0.0000 O   0  0  0  0  0  0  0  0  0  0  0  0
    1.9520   -0.3020    0.0000 C   0  0  0  0  0  0  0  0  0  0  0  0
    2.6664   -0.7145    0.0000 C   0  0  0  0  0  0  0  0  0  0  0  0
    3.3809   -0.3020    0.0000 O   0  0  0  0  0  0  0  0  0  0  0  0
    2.6664   -1.5395    0.0000 O   0  0  0  0  0  0  0  0  0  0  0  0
    0.8250    0.0000    0.0000 C   0  0  0  0  0  0  0  0  0  0  0  0
    1.2375    0.7145    0.0000 O   0  0  0  0  0  0  0  0  0  0  0  0
    0.0000    0.0000    0.0000 O   0  0  0  0  0  0  0  0  0  0  0  0
  1  2  2  0  0  0  0
  2  3  1  0  0  0  0
  2  4  1  0  0  0  0
  4  5  1  0  0  0  0
  5  6  1  0  0  0  0
  5  7  1  0  0  0  0
  7  8  1  0  0  0  0
  8  9  2  0  0  0  0
  8 10  1  0  0  0  0
  5 11  1  0  0  0  0
 11 12  2  0  0  0  0
 11 13  1  0  0  0  0
M  END
> <activity>
-10.7

> <InChiKey>
KRKNYBCHXYNGOX-UHFFFAOYSA-N

$$$$

  Mrv2220 08292413132D          

 22 21  0  0  0  0            999 V2000
    4.6184   -1.4586    0.0000 C   0  0  0  0  0  0  0  0  0  0  0  0
    3.9039   -1.0461    0.0000 C   0  0  0  0  0  0  0  0  0  0  0  0
    3.9039   -0.2211    0.0000 O   0  0  0  0  0  0  0  0  0  0  0  0
    3.1895    0.1914    0.0000 C   0  0  0  0  0  0  0  0  0  0  0  0
    2.4750   -0.2211    0.0000 O   0  0  0  0  0  0  0  0  0  0  0  0
    3.1895    1.0164    0.0000 C   0  0  0  0  0  0  0  0  0  0  0  0
    2.4750    1.4289    0.0000 C   0  0  0  0  0  0  0  0  0  0  0  0
    1.7605    1.8414    0.0000 C   0  0  0  0  0  0  0  0  0  0  0  0
    1.7605    2.6664    0.0000 C   0  0  0  0  0  0  0  0  0  0  0  0
    2.4750    3.0789    0.0000 O   0  0  0  0  0  0  0  0  0  0  0  0
    1.0461    3.0789    0.0000 O   0  0  0  0  0  0  0  0  0  0  0  0
    1.0461    3.9039    0.0000 C   0  0  0  0  0  0  0  0  0  0  0  0
    0.3316    4.3164    0.0000 C   0  0  0  0  0  0  0  0  0  0  0  0
    2.8875    2.1434    0.0000 O   0  0  0  0  0  0  0  0  0  0  0  0
    3.7125    2.1434    0.0000 C   0  0  0  0  0  0  0  0  0  0  0  0
    4.1250    2.8579    0.0000 C   0  0  0  0  0  0  0  0  0  0  0  0
    4.1250    1.4289    0.0000 O   0  0  0  0  0  0  0  0  0  0  0  0
    2.0625    0.7145    0.0000 C   0  0  0  0  0  0  0  0  0  0  0  0
    1.9763   -0.1060    0.0000 O   0  0  0  0  0  0  0  0  0  0  0  0
    1.2375    0.7145    0.0000 O   0  0  0  0  0  0  0  0  0  0  0  0
    0.8250    0.0000    0.0000 C   0  0  0  0  0  0  0  0  0  0  0  0
    0.0000    0.0000    0.0000 C   0  0  0  0  0  0  0  0  0  0  0  0
  1  2  1  0  0  0  0
  2  3  1  0  0  0  0
  3  4  1  0  0  0  0
  4  5  2  0  0  0  0
  4  6  1  0  0  0  0
  6  7  1  0  0  0  0
  7  8  1  0  0  0  0
  8  9  1  0  0  0  0
  9 10  2  0  0  0  0
  9 11  1  0  0  0  0
 11 12  1  0  0  0  0
 12 13  1  0  0  0  0
  7 14  1  0  0  0  0
 14 15  1  0  0  0  0
 15 16  1  0  0  0  0
 15 17  2  0  0  0  0
  7 18  1  0  0  0  0
 18 19  2  0  0  0  0
 18 20  1  0  0  0  0
 20 21  1  0  0  0  0
 21 22  1  0  0  0  0
M  END
> <activity>
12.1

> <InChiKey>
WEAPVABOECTMGR-UHFFFAOYSA-N

$$$$

  Mrv2220 08292413132D          

 25 27  0  0  0  0            999 V2000
    5.6091    0.7634    0.0000 N   0  0  0  0  0  0  0  0  0  0  0  0
    5.6091   -0.0616    0.0000 C   0  0  0  0  0  0  0  0  0  0  0  0
    6.3235   -0.4741    0.0000 O   0  0  0  0  0  0  0  0  0  0  0  0
    4.8946   -0.4741    0.0000 N   0  0  0  0  0  0  0  0  0  0  0  0
    4.1801   -0.0616    0.0000 O   0  0  0  0  0  0  0  0  0  0  0  0
    4.8946   -1.2991    0.0000 C   0  0  0  0  0  0  0  0  0  0  0  0
    5.5620   -1.7840    0.0000 C   0  0  0  0  0  0  0  0  0  0  0  0
    5.3071   -2.5687    0.0000 C   0  0  0  0  0  0  0  0  0  0  0  0
    4.4821   -2.5687    0.0000 C   0  0  0  0  0  0  0  0  0  0  0  0
    3.9972   -3.2361    0.0000 O   0  0  0  0  0  0  0  0  0  0  0  0
    4.3327   -3.9898    0.0000 C   0  0  0  0  0  0  0  0  0  0  0  0
    5.1532   -4.0760    0.0000 C   0  0  0  0  0  0  0  0  0  0  0  0
    5.4888   -4.8297    0.0000 C   0  0  0  0  0  0  0  0  0  0  0  0
    5.0038   -5.4971    0.0000 C   0  0  0  0  0  0  0  0  0  0  0  0
    4.1834   -5.4109    0.0000 C   0  0  0  0  0  0  0  0  0  0  0  0
    3.6984   -6.0783    0.0000 O   0  0  0  0  0  0  0  0  0  0  0  0
    2.8780   -5.9921    0.0000 C   0  0  0  0  0  0  0  0  0  0  0  0
    2.3930   -6.6595    0.0000 C   0  0  0  0  0  0  0  0  0  0  0  0
    1.5726   -6.5733    0.0000 C   0  0  0  0  0  0  0  0  0  0  0  0
    1.2370   -5.8196    0.0000 C   0  0  0  0  0  0  0  0  0  0  0  0
    0.4165   -5.7334    0.0000 F   0  0  0  0  0  0  0  0  0  0  0  0
    1.7219   -5.1522    0.0000 C   0  0  0  0  0  0  0  0  0  0  0  0
    2.5424   -5.2384    0.0000 C   0  0  0  0  0  0  0  0  0  0  0  0
    3.8478   -4.6572    0.0000 C   0  0  0  0  0  0  0  0  0  0  0  0
    4.2272   -1.7840    0.0000 C   0  0  0  0  0  0  0  0  0  0  0  0
  1  2  1  0  0  0  0
  2  3  2  0  0  0  0
  2  4  1  0  0  0  0
  4  5  1  0  0  0  0
  4  6  1  0  0  0  0
  6  7  1  0  0  0  0
  7  8  2  0  0  0  0
  8  9  1  0  0  0  0
  9 10  1  0  0  0  0
 10 11  1  0  0  0  0
 11 12  4  0  0  0  0
 12 13  4  0  0  0  0
 13 14  4  0  0  0  0
 14 15  4  0  0  0  0
 15 16  1  0  0  0  0
 16 17  1  0  0  0  0
 17 18  4  0  0  0  0
 18 19  4  0  0  0  0
 19 20  4  0  0  0  0
 20 21  1  0  0  0  0
 20 22  4  0  0  0  0
 22 23  4  0  0  0  0
 17 23  4  0  0  0  0
 15 24  4  0  0  0  0
 11 24  4  0  0  0  0
  9 25  1  0  0  0  0
  6 25  1  0  0  0  0
M  END
> <activity>
93.0

> <InChiKey>
CJFQUWMJNVTKDJ-UHFFFAOYSA-N

$$$$

  Mrv2220 08292413132D          

 19 21  0  0  0  0            999 V2000
    3.2789    2.0625    0.0000 N   0  0  0  0  0  0  0  0  0  0  0  0
    3.2789    1.2375    0.0000 C   0  0  0  0  0  0  0  0  0  0  0  0
    3.9934    0.8250    0.0000 N   0  0  0  0  0  0  0  0  0  0  0  0
    3.9934    0.0000    0.0000 C   0  0  0  0  0  0  0  0  0  0  0  0
    4.7079   -0.4125    0.0000 Cl  0  0  0  0  0  0  0  0  0  0  0  0
    3.2789   -0.4125    0.0000 N   0  0  0  0  0  0  0  0  0  0  0  0
    2.5645    0.0000    0.0000 C   0  0  0  0  0  0  0  0  0  0  0  0
    2.5645    0.8250    0.0000 C   0  0  0  0  0  0  0  0  0  0  0  0
    1.7798    1.0799    0.0000 N   0  0  0  0  0  0  0  0  0  0  0  0
    1.2949    0.4125    0.0000 C   0  0  0  0  0  0  0  0  0  0  0  0
    1.7798   -0.2549    0.0000 N   0  0  0  0  0  0  0  0  0  0  0  0
    1.5249   -1.0396    0.0000 C   0  0  0  0  0  0  0  0  0  0  0  0
    2.0098   -1.7070    0.0000 C   0  0  0  0  0  0  0  0  0  0  0  0
    1.5249   -2.3744    0.0000 C   0  0  0  0  0  0  0  0  0  0  0  0
    1.7798   -3.1591    0.0000 O   0  0  0  0  0  0  0  0  0  0  0  0
    0.7403   -2.1195    0.0000 C   0  0  0  0  0  0  0  0  0  0  0  0
    0.0728   -2.6044    0.0000 C   0  0  0  0  0  0  0  0  0  0  0  0
    0.1591   -3.4249    0.0000 O   0  0  0  0  0  0  0  0  0  0  0  0
    0.7403   -1.2945    0.0000 O   0  0  0  0  0  0  0  0  0  0  0  0
  1  2  1  0  0  0  0
  2  3  4  0  0  0  0
  3  4  4  0  0  0  0
  4  5  1  0  0  0  0
  4  6  4  0  0  0  0
  6  7  4  0  0  0  0
  7  8  4  0  0  0  0
  2  8  4  0  0  0  0
  8  9  4  0  0  0  0
  9 10  4  0  0  0  0
 10 11  4  0  0  0  0
  7 11  4  0  0  0  0
 11 12  1  0  0  0  0
 12 13  1  0  0  0  0
 13 14  1  0  0  0  0
 14 15  1  0  0  0  0
 14 16  1  0  0  0  0
 16 17  1  0  0  0  0
 17 18  1  0  0  0  0
 16 19  1  0  0  0  0
 12 19  1  0  0  0  0
M  END
> <activity>
6.3

> <InChiKey>
PTOAARAWEBMLNO-UHFFFAOYSA-N

$$$$

  Mrv2220 08292413132D          

 24 25  0  0  0  0            999 V2000
   -5.0013   -6.1875    0.0000 C   0  0  0  0  0  0  0  0  0  0  0  0
   -4.2868   -5.7750    0.0000 C   0  0  0  0  0  0  0  0  0  0  0  0
   -3.5724   -5.3625    0.0000 C   0  0  0  0  0  0  0  0  0  0  0  0
   -2.8579   -5.7750    0.0000 O   0  0  0  0  0  0  0  0  0  0  0  0
   -2.1434   -5.3625    0.0000 C   0  0  0  0  0  0  0  0  0  0  0  0
   -2.1434   -4.5375    0.0000 O   0  0  0  0  0  0  0  0  0  0  0  0
   -1.4289   -5.7750    0.0000 C   0  0  0  0  0  0  0  0  0  0  0  0
   -1.4289   -6.6000    0.0000 C   0  0  0  0  0  0  0  0  0  0  0  0
   -0.7145   -5.3625    0.0000 O   0  0  0  0  0  0  0  0  0  0  0  0
    0.0000   -5.7750    0.0000 C   0  0  0  0  0  0  0  0  0  0  0  0
    0.7145   -5.3625    0.0000 C   0  0  0  0  0  0  0  0  0  0  0  0
    1.4289   -5.7750    0.0000 C   0  0  0  0  0  0  0  0  0  0  0  0
    1.4289   -6.6000    0.0000 C   0  0  0  0  0  0  0  0  0  0  0  0
    2.1434   -7.0125    0.0000 O   0  0  0  0  0  0  0  0  0  0  0  0
    2.8579   -6.6000    0.0000 C   0  0  0  0  0  0  0  0  0  0  0  0
    2.8579   -5.7750    0.0000 N   0  0  0  0  0  0  0  0  0  0  0  0
    3.5724   -5.3625    0.0000 C   0  0  0  0  0  0  0  0  0  0  0  0
    4.2868   -5.7750    0.0000 C   0  0  0  0  0  0  0  0  0  0  0  0
    5.0013   -5.3625    0.0000 Cl  0  0  0  0  0  0  0  0  0  0  0  0
    4.2868   -6.6000    0.0000 C   0  0  0  0  0  0  0  0  0  0  0  0
    3.5724   -7.0125    0.0000 C   0  0  0  0  0  0  0  0  0  0  0  0
    3.5724   -7.8375    0.0000 F   0  0  0  0  0  0  0  0  0  0  0  0
    0.7145   -7.0125    0.0000 C   0  0  0  0  0  0  0  0  0  0  0  0
    0.0000   -6.6000    0.0000 C   0  0  0  0  0  0  0  0  0  0  0  0
  1  2  3  0  0  0  0
  2  3  1  0  0  0  0
  3  4  1  0  0  0  0
  4  5  1  0  0  0  0
  5  6  2  0  0  0  0
  5  7  1  0  0  0  0
  7  8  1  0  0  0  0
  7  9  1  0  0  0  0
  9 10  1  0  0  0  0
 10 11  4  0  0  0  0
 11 12  4  0  0  0  0
 12 13  4  0  0  0  0
 13 14  1  0  0  0  0
 14 15  1  0  0  0  0
 15 16  4  0  0  0  0
 16 17  4  0  0  0  0
 17 18  4  0  0  0  0
 18 19  1  0  0  0  0
 18 20  4  0  0  0  0
 20 21  4  0  0  0  0
 15 21  4  0  0  0  0
 21 22  1  0  0  0  0
 13 23  4  0  0  0  0
 23 24  4  0  0  0  0
 10 24  4  0  0  0  0
M  END
> <activity>
57.3

> <InChiKey>
JBDHZKLJNAIJNC-UHFFFAOYSA-N

$$$$

  Mrv2220 08292413132D          

 16 16  0  0  0  0            999 V2000
   -1.4289    4.9500    0.0000 C   0  0  0  0  0  0  0  0  0  0  0  0
   -1.4289    4.1250    0.0000 C   0  0  0  0  0  0  0  0  0  0  0  0
   -0.7145    3.7125    0.0000 O   0  0  0  0  0  0  0  0  0  0  0  0
   -0.7145    2.8875    0.0000 C   0  0  0  0  0  0  0  0  0  0  0  0
   -1.4289    2.4750    0.0000 O   0  0  0  0  0  0  0  0  0  0  0  0
    0.0000    2.4750    0.0000 C   0  0  0  0  0  0  0  0  0  0  0  0
   -0.4125    1.7605    0.0000 C   0  0  0  0  0  0  0  0  0  0  0  0
    0.4125    3.1895    0.0000 C   0  0  0  0  0  0  0  0  0  0  0  0
    0.7145    2.0625    0.0000 O   0  0  0  0  0  0  0  0  0  0  0  0
    0.7145    1.2375    0.0000 C   0  0  0  0  0  0  0  0  0  0  0  0
    1.4289    0.8250    0.0000 C   0  0  0  0  0  0  0  0  0  0  0  0
    1.4289   -0.0000    0.0000 C   0  0  0  0  0  0  0  0  0  0  0  0
    0.7145   -0.4125    0.0000 C   0  0  0  0  0  0  0  0  0  0  0  0
    0.7145   -1.2375    0.0000 Cl  0  0  0  0  0  0  0  0  0  0  0  0
    0.0000    0.0000    0.0000 C   0  0  0  0  0  0  0  0  0  0  0  0
    0.0000    0.8250    0.0000 C   0  0  0  0  0  0  0  0  0  0  0  0
  1  2  1  0  0  0  0
  2  3  1  0  0  0  0
  3  4  1  0  0  0  0
  4  5  2  0  0  0  0
  4  6  1  0  0  0  0
  6  7  1  0  0  0  0
  6  8  1  0  0  0  0
  6  9  1  0  0  0  0
  9 10  1  0  0  0  0
 10 11  4  0  0  0  0
 11 12  4  0  0  0  0
 12 13  4  0  0  0  0
 13 14  1  0  0  0  0
 13 15  4  0  0  0  0
 15 16  4  0  0  0  0
 10 16  4  0  0  0  0
M  END
> <activity>
42.1

> <InChiKey>
KNHUKKLJHYUCFP-UHFFFAOYSA-N

$$$$

  Mrv2220 08292413132D          

 15 16  0  0  0  0            999 V2000
    2.1434   -0.4125    0.0000 O   0  0  0  0  0  0  0  0  0  0  0  0
    2.1434   -1.2375    0.0000 C   0  0  0  0  0  0  0  0  0  0  0  0
    2.8579   -1.6500    0.0000 C   0  0  0  0  0  0  0  0  0  0  0  0
    2.8579   -2.4750    0.0000 C   0  0  0  0  0  0  0  0  0  0  0  0
    2.1434   -2.8875    0.0000 C   0  0  0  0  0  0  0  0  0  0  0  0
    2.1434   -3.7125    0.0000 Cl  0  0  0  0  0  0  0  0  0  0  0  0
    1.4289   -2.4750    0.0000 C   0  0  0  0  0  0  0  0  0  0  0  0
    1.4289   -1.6500    0.0000 C   0  0  0  0  0  0  0  0  0  0  0  0
    0.7145   -1.2375    0.0000 C   0  0  0  0  0  0  0  0  0  0  0  0
    0.7145   -0.4125    0.0000 C   0  0  0  0  0  0  0  0  0  0  0  0
    0.0000    0.0000    0.0000 C   0  0  0  0  0  0  0  0  0  0  0  0
    0.0000    0.8250    0.0000 C   0  0  0  0  0  0  0  0  0  0  0  0
    0.7145    1.2375    0.0000 C   0  0  0  0  0  0  0  0  0  0  0  0
    1.4289    0.8250    0.0000 C   0  0  0  0  0  0  0  0  0  0  0  0
    1.4289    0.0000    0.0000 C   0  0  0  0  0  0  0  0  0  0  0  0
  1  2  1  0  0  0  0
  2  3  4  0  0  0  0
  3  4  4  0  0  0  0
  4  5  4  0  0  0  0
  5  6  1  0  0  0  0
  5  7  4  0  0  0  0
  7  8  4  0  0  0  0
  2  8  4  0  0  0  0
  8  9  1  0  0  0  0
  9 10  1  0  0  0  0
 10 11  4  0  0  0  0
 11 12  4  0  0  0  0
 12 13  4  0  0  0  0
 13 14  4  0  0  0  0
 14 15  4  0  0  0  0
 10 15  4  0  0  0  0
M  END
> <activity>
105.0

> <InChiKey>
NCKMMSIFQUPKCK-UHFFFAOYSA-N

$$$$

  Mrv2220 08292413132D          

 12 12  0  0  0  0            999 V2000
    0.6725   -1.9957    0.0000 C   0  0  0  0  0  0  0  0  0  0  0  0
    1.3870   -2.4082    0.0000 O   0  0  0  0  0  0  0  0  0  0  0  0
    2.1015   -1.9957    0.0000 C   0  0  0  0  0  0  0  0  0  0  0  0
    2.1015   -1.1707    0.0000 O   0  0  0  0  0  0  0  0  0  0  0  0
    2.8159   -2.4082    0.0000 C   0  0  0  0  0  0  0  0  0  0  0  0
    2.8159   -3.2332    0.0000 N   0  0  0  0  0  0  0  0  0  0  0  0
    3.5304   -1.9957    0.0000 C   0  0  0  0  0  0  0  0  0  0  0  0
    4.2449   -2.4082    0.0000 C   0  0  0  0  0  0  0  0  0  0  0  0
    4.9986   -2.0727    0.0000 C   0  0  0  0  0  0  0  0  0  0  0  0
    5.5506   -2.6857    0.0000 N   0  0  0  0  0  0  0  0  0  0  0  0
    5.1381   -3.4002    0.0000 C   0  0  0  0  0  0  0  0  0  0  0  0
    4.3311   -3.2287    0.0000 N   0  0  0  0  0  0  0  0  0  0  0  0
  1  2  1  0  0  0  0
  2  3  1  0  0  0  0
  3  4  2  0  0  0  0
  3  5  1  0  0  0  0
  5  6  1  0  0  0  0
  5  7  1  0  0  0  0
  7  8  1  0  0  0  0
  8  9  4  0  0  0  0
  9 10  4  0  0  0  0
 10 11  4  0  0  0  0
 11 12  4  0  0  0  0
  8 12  4  0  0  0  0
M  STY  1   1 DAT
M  SAL   1  1  12
M  SDT   1 MRV_IMPLICIT_H                                        
M  SDD   1     0.5304   -0.4125    DR    ALL  0       0  
M  SED   1 IMPL_H1
M  END
> <activity>
85.7

> <InChiKey>
BXRMEWOQUXOLDH-UHFFFAOYSA-N

$$$$

  Mrv2220 08292413132D          

 29 31  0  0  0  0            999 V2000
    5.3226   -0.6674    0.0000 C   0  0  0  0  0  0  0  0  0  0  0  0
    5.0479    0.1105    0.0000 O   0  0  0  0  0  0  0  0  0  0  0  0
    4.2368    0.2615    0.0000 C   0  0  0  0  0  0  0  0  0  0  0  0
    3.9621    1.0394    0.0000 C   0  0  0  0  0  0  0  0  0  0  0  0
    3.1510    1.1904    0.0000 C   0  0  0  0  0  0  0  0  0  0  0  0
    2.6147    0.5635    0.0000 C   0  0  0  0  0  0  0  0  0  0  0  0
    2.8894   -0.2144    0.0000 C   0  0  0  0  0  0  0  0  0  0  0  0
    2.3531   -0.8413    0.0000 O   0  0  0  0  0  0  0  0  0  0  0  0
    2.6279   -1.6192    0.0000 C   0  0  0  0  0  0  0  0  0  0  0  0
    3.7005   -0.3654    0.0000 C   0  0  0  0  0  0  0  0  0  0  0  0
    3.9752   -1.1433    0.0000 O   0  0  0  0  0  0  0  0  0  0  0  0
    4.7863   -1.2943    0.0000 C   0  0  0  0  0  0  0  0  0  0  0  0
    1.7902    0.5920    0.0000 C   0  0  0  0  0  0  0  0  0  0  0  0
    1.5790   -0.2055    0.0000 C   0  0  0  0  0  0  0  0  0  0  0  0
    0.8238   -0.5377    0.0000 C   0  0  0  0  0  0  0  0  0  0  0  0
    0.0933   -0.1543    0.0000 C   0  0  0  0  0  0  0  0  0  0  0  0
   -0.5691   -0.6461    0.0000 O   0  0  0  0  0  0  0  0  0  0  0  0
   -0.4743   -1.4656    0.0000 C   0  0  0  0  0  0  0  0  0  0  0  0
   -0.0625    0.6559    0.0000 C   0  0  0  0  0  0  0  0  0  0  0  0
   -0.8600    0.8671    0.0000 O   0  0  0  0  0  0  0  0  0  0  0  0
    0.4738    1.2828    0.0000 C   0  0  0  0  0  0  0  0  0  0  0  0
    1.2984    1.2543    0.0000 C   0  0  0  0  0  0  0  0  0  0  0  0
    1.5096    2.0518    0.0000 C   0  0  0  0  0  0  0  0  0  0  0  0
    0.8827    2.5882    0.0000 N   0  0  0  0  0  0  0  0  0  0  0  0
    0.1048    2.3134    0.0000 C   0  0  0  0  0  0  0  0  0  0  0  0
   -0.0463    1.5023    0.0000 C   0  0  0  0  0  0  0  0  0  0  0  0
   -0.5221    2.8497    0.0000 O   0  0  0  0  0  0  0  0  0  0  0  0
    2.2648    2.3839    0.0000 C   0  0  0  0  0  0  0  0  0  0  0  0
    2.9953    2.0006    0.0000 C   0  0  0  0  0  0  0  0  0  0  0  0
  1  2  1  0  0  0  0
  2  3  1  0  0  0  0
  3  4  4  0  0  0  0
  4  5  4  0  0  0  0
  5  6  4  0  0  0  0
  6  7  4  0  0  0  0
  7  8  1  0  0  0  0
  8  9  1  0  0  0  0
  7 10  4  0  0  0  0
  3 10  4  0  0  0  0
 10 11  1  0  0  0  0
 11 12  1  0  0  0  0
  6 13  1  0  0  0  0
 13 14  4  0  0  0  0
 14 15  4  0  0  0  0
 15 16  4  0  0  0  0
 16 17  1  0  0  0  0
 17 18  1  0  0  0  0
 16 19  4  0  0  0  0
 19 20  2  0  0  0  0
 19 21  4  0  0  0  0
 21 22  4  0  0  0  0
 13 22  4  0  0  0  0
 22 23  1  0  0  0  0
 23 24  1  0  0  0  0
 24 25  1  0  0  0  0
 25 26  1  0  0  0  0
 25 27  2  0  0  0  0
 23 28  1  0  0  0  0
 28 29  1  0  0  0  0
  5 29  1  0  0  0  0
M  END
> <activity>
41.7

> <InChiKey>
IAKHMKGGTNLKSZ-UHFFFAOYSA-N

$$$$

  Mrv2220 08292413132D          

 25 28  0  0  0  0            999 V2000
    4.5466   -0.5086    0.0000 C   0  0  0  0  0  0  0  0  0  0  0  0
    4.8269    0.2673    0.0000 C   0  0  0  0  0  0  0  0  0  0  0  0
    5.3587   -0.3634    0.0000 C   0  0  0  0  0  0  0  0  0  0  0  0
    6.1708   -0.2182    0.0000 C   0  0  0  0  0  0  0  0  0  0  0  0
    6.4511    0.5577    0.0000 C   0  0  0  0  0  0  0  0  0  0  0  0
    7.2632    0.7029    0.0000 O   0  0  0  0  0  0  0  0  0  0  0  0
    5.9193    1.1884    0.0000 C   0  0  0  0  0  0  0  0  0  0  0  0
    5.1072    1.0432    0.0000 C   0  0  0  0  0  0  0  0  0  0  0  0
    4.5754    1.6739    0.0000 C   0  0  0  0  0  0  0  0  0  0  0  0
    3.7633    1.5287    0.0000 C   0  0  0  0  0  0  0  0  0  0  0  0
    3.4830    0.7528    0.0000 C   0  0  0  0  0  0  0  0  0  0  0  0
    4.0148    0.1221    0.0000 C   0  0  0  0  0  0  0  0  0  0  0  0
    3.7345   -0.6539    0.0000 C   0  0  0  0  0  0  0  0  0  0  0  0
    4.2663   -1.2846    0.0000 O   0  0  0  0  0  0  0  0  0  0  0  0
    2.9224   -0.7991    0.0000 C   0  0  0  0  0  0  0  0  0  0  0  0
    2.3905   -0.1684    0.0000 C   0  0  0  0  0  0  0  0  0  0  0  0
    2.0307   -0.9107    0.0000 C   0  0  0  0  0  0  0  0  0  0  0  0
    1.5660   -0.1416    0.0000 C   0  0  0  0  0  0  0  0  0  0  0  0
    1.0596   -0.7929    0.0000 C   0  0  0  0  0  0  0  0  0  0  0  0
    1.3705   -1.5571    0.0000 O   0  0  0  0  0  0  0  0  0  0  0  0
    0.2424   -0.6800    0.0000 C   0  0  0  0  0  0  0  0  0  0  0  0
   -0.2640   -1.3314    0.0000 O   0  0  0  0  0  0  0  0  0  0  0  0
    1.3367    0.6509    0.0000 C   0  0  0  0  0  0  0  0  0  0  0  0
    2.0195    1.1139    0.0000 C   0  0  0  0  0  0  0  0  0  0  0  0
    2.6708    0.6076    0.0000 C   0  0  0  0  0  0  0  0  0  0  0  0
  1  2  1  0  0  0  0
  2  3  1  0  0  0  0
  3  4  1  0  0  0  0
  4  5  1  0  0  0  0
  5  6  2  0  0  0  0
  5  7  1  0  0  0  0
  7  8  2  0  0  0  0
  2  8  1  0  0  0  0
  8  9  1  0  0  0  0
  9 10  1  0  0  0  0
 10 11  1  0  0  0  0
 11 12  1  0  0  0  0
  2 12  1  0  0  0  0
 12 13  1  0  0  0  0
 13 14  1  0  0  0  0
 13 15  1  0  0  0  0
 15 16  1  0  0  0  0
 16 17  1  0  0  0  0
 16 18  1  0  0  0  0
 18 19  1  0  0  0  0
 19 20  2  0  0  0  0
 19 21  1  0  0  0  0
 21 22  1  0  0  0  0
 18 23  1  0  0  0  0
 23 24  1  0  0  0  0
 24 25  1  0  0  0  0
 11 25  1  0  0  0  0
 16 25  1  0  0  0  0
M  END
> <activity>
12.6

> <InChiKey>
OMFXVFTZEKFJBZ-UHFFFAOYSA-N

$$$$

  Mrv2220 08292413132D          

 13 14  0  0  0  0            999 V2000
    0.7145   -0.4125    0.0000 C   0  0  0  0  0  0  0  0  0  0  0  0
    0.7145   -1.2375    0.0000 N   0  0  0  0  0  0  0  0  0  0  0  0
    1.3819   -1.7224    0.0000 C   0  0  0  0  0  0  0  0  0  0  0  0
    2.1665   -1.4675    0.0000 O   0  0  0  0  0  0  0  0  0  0  0  0
    1.1270   -2.5070    0.0000 C   0  0  0  0  0  0  0  0  0  0  0  0
    0.3020   -2.5070    0.0000 C   0  0  0  0  0  0  0  0  0  0  0  0
    0.0470   -1.7224    0.0000 C   0  0  0  0  0  0  0  0  0  0  0  0
   -0.7376   -1.4675    0.0000 C   0  0  0  0  0  0  0  0  0  0  0  0
   -1.3507   -2.0195    0.0000 C   0  0  0  0  0  0  0  0  0  0  0  0
   -2.1353   -1.7646    0.0000 C   0  0  0  0  0  0  0  0  0  0  0  0
   -2.3068   -0.9576    0.0000 C   0  0  0  0  0  0  0  0  0  0  0  0
   -1.6937   -0.4056    0.0000 N   0  0  0  0  0  0  0  0  0  0  0  0
   -0.9091   -0.6605    0.0000 C   0  0  0  0  0  0  0  0  0  0  0  0
  1  2  1  0  0  0  0
  2  3  1  0  0  0  0
  3  4  2  0  0  0  0
  3  5  1  0  0  0  0
  5  6  1  0  0  0  0
  6  7  1  0  0  0  0
  2  7  1  0  0  0  0
  7  8  1  0  0  0  0
  8  9  4  0  0  0  0
  9 10  4  0  0  0  0
 10 11  4  0  0  0  0
 11 12  4  0  0  0  0
 12 13  4  0  0  0  0
  8 13  4  0  0  0  0
M  END
> <activity>
4.8

> <InChiKey>
UIKROCXWUNQSPJ-UHFFFAOYSA-N

$$$$

  Mrv2220 08292413132D          

 33 37  0  0  0  0            999 V2000
   -3.5724   -1.2375    0.0000 O   0  0  0  0  0  0  0  0  0  0  0  0
   -2.8579   -1.6500    0.0000 C   0  0  0  0  0  0  0  0  0  0  0  0
   -2.8579   -2.4750    0.0000 O   0  0  0  0  0  0  0  0  0  0  0  0
   -2.1434   -1.2375    0.0000 C   0  0  0  0  0  0  0  0  0  0  0  0
   -2.1434   -0.4125    0.0000 C   0  0  0  0  0  0  0  0  0  0  0  0
   -1.4289    0.0000    0.0000 C   0  0  0  0  0  0  0  0  0  0  0  0
   -0.7145   -0.4125    0.0000 C   0  0  0  0  0  0  0  0  0  0  0  0
   -0.7145   -1.2375    0.0000 C   0  0  0  0  0  0  0  0  0  0  0  0
    0.0000   -1.6500    0.0000 C   0  0  0  0  0  0  0  0  0  0  0  0
    0.7145   -1.2375    0.0000 C   0  0  0  0  0  0  0  0  0  0  0  0
    0.7145   -0.4125    0.0000 C   0  0  0  0  0  0  0  0  0  0  0  0
    1.4289    0.0000    0.0000 O   0  0  0  0  0  0  0  0  0  0  0  0
    2.1434   -0.4125    0.0000 C   0  0  0  0  0  0  0  0  0  0  0  0
    2.8579    0.0000    0.0000 C   0  0  0  0  0  0  0  0  0  0  0  0
    3.5724   -0.4125    0.0000 C   0  0  0  0  0  0  0  0  0  0  0  0
    3.5724   -1.2375    0.0000 C   0  0  0  0  0  0  0  0  0  0  0  0
    4.2868   -1.6500    0.0000 O   0  0  0  0  0  0  0  0  0  0  0  0
    5.0013   -1.2375    0.0000 C   0  0  0  0  0  0  0  0  0  0  0  0
    5.7158   -1.6500    0.0000 C   0  0  0  0  0  0  0  0  0  0  0  0
    6.4694   -1.3144    0.0000 N   0  0  0  0  0  0  0  0  0  0  0  0
    7.0215   -1.9275    0.0000 C   0  0  0  0  0  0  0  0  0  0  0  0
    7.8465   -1.9275    0.0000 C   0  0  0  0  0  0  0  0  0  0  0  0
    8.2590   -2.6420    0.0000 C   0  0  0  0  0  0  0  0  0  0  0  0
    9.0840   -2.6420    0.0000 F   0  0  0  0  0  0  0  0  0  0  0  0
    7.8465   -3.3565    0.0000 C   0  0  0  0  0  0  0  0  0  0  0  0
    7.0215   -3.3565    0.0000 C   0  0  0  0  0  0  0  0  0  0  0  0
    6.6090   -2.6420    0.0000 C   0  0  0  0  0  0  0  0  0  0  0  0
    5.8020   -2.4705    0.0000 S   0  0  0  0  0  0  0  0  0  0  0  0
    2.8579   -1.6500    0.0000 C   0  0  0  0  0  0  0  0  0  0  0  0
    2.1434   -1.2375    0.0000 C   0  0  0  0  0  0  0  0  0  0  0  0
    1.4289   -1.6500    0.0000 C   0  0  0  0  0  0  0  0  0  0  0  0
    1.4289   -2.4750    0.0000 O   0  0  0  0  0  0  0  0  0  0  0  0
   -1.4289   -1.6500    0.0000 C   0  0  0  0  0  0  0  0  0  0  0  0
  1  2  2  0  0  0  0
  2  3  1  0  0  0  0
  2  4  1  0  0  0  0
  4  5  4  0  0  0  0
  5  6  4  0  0  0  0
  6  7  4  0  0  0  0
  7  8  4  0  0  0  0
  8  9  1  0  0  0  0
  9 10  1  0  0  0  0
 10 11  1  0  0  0  0
 11 12  1  0  0  0  0
 12 13  1  0  0  0  0
 13 14  4  0  0  0  0
 14 15  4  0  0  0  0
 15 16  4  0  0  0  0
 16 17  1  0  0  0  0
 17 18  1  0  0  0  0
 18 19  1  0  0  0  0
 19 20  4  0  0  0  0
 20 21  4  0  0  0  0
 21 22  4  0  0  0  0
 22 23  4  0  0  0  0
 23 24  1  0  0  0  0
 23 25  4  0  0  0  0
 25 26  4  0  0  0  0
 26 27  4  0  0  0  0
 21 27  4  0  0  0  0
 27 28  4  0  0  0  0
 19 28  4  0  0  0  0
 16 29  4  0  0  0  0
 29 30  4  0  0  0  0
 13 30  4  0  0  0  0
 30 31  1  0  0  0  0
 10 31  1  0  0  0  0
 31 32  1  0  0  0  0
  8 33  4  0  0  0  0
  4 33  4  0  0  0  0
M  END
> <activity>
64.6

> <InChiKey>
RYSLZFOZDSIPHK-UHFFFAOYSA-N

$$$$

  Mrv2220 08292413132D          

 27 28  0  0  0  0            999 V2000
    1.4289    0.0000    0.0000 C   0  0  0  0  0  0  0  0  0  0  0  0
    1.4289   -0.8250    0.0000 C   0  0  0  0  0  0  0  0  0  0  0  0
    0.7145   -1.2375    0.0000 C   0  0  0  0  0  0  0  0  0  0  0  0
    0.0000   -0.8250    0.0000 C   0  0  0  0  0  0  0  0  0  0  0  0
   -0.7145   -1.2375    0.0000 C   0  0  0  0  0  0  0  0  0  0  0  0
   -1.4289   -0.8250    0.0000 C   0  0  0  0  0  0  0  0  0  0  0  0
   -1.4289    0.0000    0.0000 C   0  0  0  0  0  0  0  0  0  0  0  0
   -2.1434    0.4125    0.0000 O   0  0  0  0  0  0  0  0  0  0  0  0
   -2.1434    1.2375    0.0000 C   0  0  0  0  0  0  0  0  0  0  0  0
   -2.8579    1.6500    0.0000 C   0  0  0  0  0  0  0  0  0  0  0  0
   -2.8579    2.4750    0.0000 O   0  0  0  0  0  0  0  0  0  0  0  0
   -3.5724    1.2375    0.0000 O   0  0  0  0  0  0  0  0  0  0  0  0
   -0.7145    0.4125    0.0000 C   0  0  0  0  0  0  0  0  0  0  0  0
    0.0000   -0.0000    0.0000 C   0  0  0  0  0  0  0  0  0  0  0  0
    2.1434   -1.2375    0.0000 N   0  0  0  0  0  0  0  0  0  0  0  0
    2.8579   -0.8250    0.0000 C   0  0  0  0  0  0  0  0  0  0  0  0
    3.5724   -1.2375    0.0000 C   0  0  0  0  0  0  0  0  0  0  0  0
    3.5724   -2.0625    0.0000 O   0  0  0  0  0  0  0  0  0  0  0  0
    4.2868   -0.8250    0.0000 C   0  0  0  0  0  0  0  0  0  0  0  0
    4.3731   -0.0045    0.0000 C   0  0  0  0  0  0  0  0  0  0  0  0
    5.1800    0.1670    0.0000 S   0  0  0  0  0  0  0  0  0  0  0  0
    5.5925   -0.5475    0.0000 C   0  0  0  0  0  0  0  0  0  0  0  0
    6.4130   -0.6337    0.0000 C   0  0  0  0  0  0  0  0  0  0  0  0
    7.2335   -0.7199    0.0000 F   0  0  0  0  0  0  0  0  0  0  0  0
    6.3268   -1.4542    0.0000 F   0  0  0  0  0  0  0  0  0  0  0  0
    6.4993    0.1868    0.0000 F   0  0  0  0  0  0  0  0  0  0  0  0
    5.0405   -1.1606    0.0000 N   0  0  0  0  0  0  0  0  0  0  0  0
  1  2  1  0  0  0  0
  2  3  1  0  0  0  0
  3  4  1  0  0  0  0
  4  5  4  0  0  0  0
  5  6  4  0  0  0  0
  6  7  4  0  0  0  0
  7  8  1  0  0  0  0
  8  9  1  0  0  0  0
  9 10  1  0  0  0  0
 10 11  2  0  0  0  0
 10 12  1  0  0  0  0
  7 13  4  0  0  0  0
 13 14  4  0  0  0  0
  4 14  4  0  0  0  0
  2 15  1  0  0  0  0
 15 16  1  0  0  0  0
 16 17  1  0  0  0  0
 17 18  1  0  0  0  0
 17 19  1  0  0  0  0
 19 20  4  0  0  0  0
 20 21  4  0  0  0  0
 21 22  4  0  0  0  0
 22 23  1  0  0  0  0
 23 24  1  0  0  0  0
 23 25  1  0  0  0  0
 23 26  1  0  0  0  0
 22 27  4  0  0  0  0
 19 27  4  0  0  0  0
M  END
> <activity>
22.3

> <InChiKey>
YVIXXPCJZAUQHJ-UHFFFAOYSA-N

$$$$

  Mrv2220 08292413132D          

 26 29  0  0  0  0            999 V2000
   -1.4289    0.0000    0.0000 O   0  0  0  0  0  0  0  0  0  0  0  0
   -0.7145   -0.4125    0.0000 C   0  0  0  0  0  0  0  0  0  0  0  0
   -0.7145   -1.2375    0.0000 C   0  0  0  0  0  0  0  0  0  0  0  0
    0.0000   -1.6500    0.0000 C   0  0  0  0  0  0  0  0  0  0  0  0
    0.7145   -1.2375    0.0000 C   0  0  0  0  0  0  0  0  0  0  0  0
    0.7145   -0.4125    0.0000 C   0  0  0  0  0  0  0  0  0  0  0  0
    0.0000   -0.0000    0.0000 C   0  0  0  0  0  0  0  0  0  0  0  0
    1.4289   -0.0000    0.0000 O   0  0  0  0  0  0  0  0  0  0  0  0
    2.1434   -0.4125    0.0000 C   0  0  0  0  0  0  0  0  0  0  0  0
    2.1434   -1.2375    0.0000 C   0  0  0  0  0  0  0  0  0  0  0  0
    2.8579   -1.6500    0.0000 N   0  0  0  0  0  0  0  0  0  0  0  0
    3.5724   -1.2375    0.0000 C   0  0  0  0  0  0  0  0  0  0  0  0
    4.2868   -1.6500    0.0000 C   0  0  0  0  0  0  0  0  0  0  0  0
    4.2868   -2.4750    0.0000 C   0  0  0  0  0  0  0  0  0  0  0  0
    5.0993   -2.3317    0.0000 O   0  0  0  0  0  0  0  0  0  0  0  0
    4.5690   -3.2502    0.0000 C   0  0  0  0  0  0  0  0  0  0  0  0
    5.3815   -3.3935    0.0000 C   0  0  0  0  0  0  0  0  0  0  0  0
    5.6636   -4.1688    0.0000 C   0  0  0  0  0  0  0  0  0  0  0  0
    5.1333   -4.8007    0.0000 C   0  0  0  0  0  0  0  0  0  0  0  0
    5.4155   -5.5760    0.0000 F   0  0  0  0  0  0  0  0  0  0  0  0
    4.3209   -4.6575    0.0000 C   0  0  0  0  0  0  0  0  0  0  0  0
    4.0387   -3.8822    0.0000 C   0  0  0  0  0  0  0  0  0  0  0  0
    3.5724   -2.8875    0.0000 C   0  0  0  0  0  0  0  0  0  0  0  0
    2.8579   -2.4750    0.0000 C   0  0  0  0  0  0  0  0  0  0  0  0
    1.4289   -1.6500    0.0000 C   0  0  0  0  0  0  0  0  0  0  0  0
    1.4289   -2.4750    0.0000 O   0  0  0  0  0  0  0  0  0  0  0  0
  1  2  1  0  0  0  0
  2  3  4  0  0  0  0
  3  4  4  0  0  0  0
  4  5  4  0  0  0  0
  5  6  4  0  0  0  0
  6  7  4  0  0  0  0
  2  7  4  0  0  0  0
  6  8  1  0  0  0  0
  8  9  1  0  0  0  0
  9 10  1  0  0  0  0
 10 11  1  0  0  0  0
 11 12  1  0  0  0  0
 12 13  1  0  0  0  0
 13 14  1  0  0  0  0
 14 15  1  0  0  0  0
 14 16  1  0  0  0  0
 16 17  4  0  0  0  0
 17 18  4  0  0  0  0
 18 19  4  0  0  0  0
 19 20  1  0  0  0  0
 19 21  4  0  0  0  0
 21 22  4  0  0  0  0
 16 22  4  0  0  0  0
 14 23  1  0  0  0  0
 23 24  1  0  0  0  0
 11 24  1  0  0  0  0
 10 25  1  0  0  0  0
  5 25  1  0  0  0  0
 25 26  1  0  0  0  0
M  END
> <activity>
59.6

> <InChiKey>
JGYVZUCCBOVDJE-UHFFFAOYSA-N

$$$$

  Mrv2220 08292413132D          

 28 31  0  0  0  0            999 V2000
    1.4358   -2.7631    0.0000 C   0  0  0  0  0  0  0  0  0  0  0  0
    0.8838   -2.1500    0.0000 C   0  0  0  0  0  0  0  0  0  0  0  0
    1.1387   -1.3654    0.0000 C   0  0  0  0  0  0  0  0  0  0  0  0
    0.6538   -0.6979    0.0000 N   0  0  0  0  0  0  0  0  0  0  0  0
    1.1387   -0.0305    0.0000 N   0  0  0  0  0  0  0  0  0  0  0  0
    0.8838    0.7541    0.0000 C   0  0  0  0  0  0  0  0  0  0  0  0
    0.0768    0.9256    0.0000 C   0  0  0  0  0  0  0  0  0  0  0  0
   -0.1781    1.7103    0.0000 C   0  0  0  0  0  0  0  0  0  0  0  0
    0.3739    2.3234    0.0000 C   0  0  0  0  0  0  0  0  0  0  0  0
    1.1809    2.1518    0.0000 C   0  0  0  0  0  0  0  0  0  0  0  0
    1.4358    1.3672    0.0000 C   0  0  0  0  0  0  0  0  0  0  0  0
    1.9233   -0.2854    0.0000 C   0  0  0  0  0  0  0  0  0  0  0  0
    2.6378    0.1271    0.0000 C   0  0  0  0  0  0  0  0  0  0  0  0
    3.3523   -0.2854    0.0000 C   0  0  0  0  0  0  0  0  0  0  0  0
    4.0668    0.1271    0.0000 C   0  0  0  0  0  0  0  0  0  0  0  0
    4.3489   -0.6482    0.0000 C   0  0  0  0  0  0  0  0  0  0  0  0
    4.6311   -1.4234    0.0000 N   0  0  0  0  0  0  0  0  0  0  0  0
    3.5365    0.7590    0.0000 C   0  0  0  0  0  0  0  0  0  0  0  0
    3.8186    1.5343    0.0000 C   0  0  0  0  0  0  0  0  0  0  0  0
    4.6311    1.6776    0.0000 C   0  0  0  0  0  0  0  0  0  0  0  0
    4.9133    2.4528    0.0000 C   0  0  0  0  0  0  0  0  0  0  0  0
    4.3830    3.0848    0.0000 O   0  0  0  0  0  0  0  0  0  0  0  0
    5.7257    2.5961    0.0000 O   0  0  0  0  0  0  0  0  0  0  0  0
    5.1614    1.0456    0.0000 C   0  0  0  0  0  0  0  0  0  0  0  0
    4.8792    0.2703    0.0000 C   0  0  0  0  0  0  0  0  0  0  0  0
    3.3523   -1.1104    0.0000 C   0  0  0  0  0  0  0  0  0  0  0  0
    2.6378   -1.5229    0.0000 C   0  0  0  0  0  0  0  0  0  0  0  0
    1.9233   -1.1104    0.0000 C   0  0  0  0  0  0  0  0  0  0  0  0
  1  2  1  0  0  0  0
  2  3  1  0  0  0  0
  3  4  4  0  0  0  0
  4  5  4  0  0  0  0
  5  6  1  0  0  0  0
  6  7  1  0  0  0  0
  7  8  1  0  0  0  0
  8  9  1  0  0  0  0
  9 10  1  0  0  0  0
 10 11  1  0  0  0  0
  6 11  1  0  0  0  0
  5 12  4  0  0  0  0
 12 13  4  0  0  0  0
 13 14  4  0  0  0  0
 14 15  1  0  0  0  0
 15 16  1  0  0  0  0
 16 17  3  0  0  0  0
 15 18  1  0  0  0  0
 18 19  1  0  0  0  0
 19 20  1  0  0  0  0
 20 21  1  0  0  0  0
 21 22  2  0  0  0  0
 21 23  1  0  0  0  0
 20 24  1  0  0  0  0
 24 25  1  0  0  0  0
 15 25  1  0  0  0  0
 14 26  4  0  0  0  0
 26 27  4  0  0  0  0
 27 28  4  0  0  0  0
  3 28  4  0  0  0  0
 12 28  4  0  0  0  0
M  END
> <activity>
62.7

> <InChiKey>
PRUGWHGQBHEDAX-UHFFFAOYSA-N

$$$$

  Mrv2220 08292413132D          

 28 31  0  0  0  0            999 V2000
    3.0539   -0.5385    0.0000 C   0  0  0  0  0  0  0  0  0  0  0  0
    3.0539   -1.3635    0.0000 C   0  0  0  0  0  0  0  0  0  0  0  0
    2.3394   -1.7760    0.0000 O   0  0  0  0  0  0  0  0  0  0  0  0
    2.3394   -2.6010    0.0000 C   0  0  0  0  0  0  0  0  0  0  0  0
    3.0539   -3.0135    0.0000 C   0  0  0  0  0  0  0  0  0  0  0  0
    3.0539   -3.8385    0.0000 C   0  0  0  0  0  0  0  0  0  0  0  0
    2.3394   -4.2510    0.0000 C   0  0  0  0  0  0  0  0  0  0  0  0
    1.6249   -3.8385    0.0000 C   0  0  0  0  0  0  0  0  0  0  0  0
    0.9105   -4.2510    0.0000 C   0  0  0  0  0  0  0  0  0  0  0  0
    0.6283   -3.4757    0.0000 N   0  0  0  0  0  0  0  0  0  0  0  0
   -0.1842   -3.3325    0.0000 C   0  0  0  0  0  0  0  0  0  0  0  0
   -0.4663   -2.5572    0.0000 C   0  0  0  0  0  0  0  0  0  0  0  0
    0.0640   -1.9252    0.0000 N   0  0  0  0  0  0  0  0  0  0  0  0
   -0.2182   -1.1500    0.0000 C   0  0  0  0  0  0  0  0  0  0  0  0
   -1.0307   -1.0067    0.0000 C   0  0  0  0  0  0  0  0  0  0  0  0
   -1.3128   -0.2315    0.0000 C   0  0  0  0  0  0  0  0  0  0  0  0
   -0.7825    0.4005    0.0000 C   0  0  0  0  0  0  0  0  0  0  0  0
    0.0299    0.2572    0.0000 C   0  0  0  0  0  0  0  0  0  0  0  0
    0.3121   -0.5180    0.0000 C   0  0  0  0  0  0  0  0  0  0  0  0
    0.8764   -2.0685    0.0000 C   0  0  0  0  0  0  0  0  0  0  0  0
    1.1586   -2.8437    0.0000 C   0  0  0  0  0  0  0  0  0  0  0  0
    1.4408   -4.8830    0.0000 C   0  0  0  0  0  0  0  0  0  0  0  0
    1.1586   -5.6582    0.0000 C   0  0  0  0  0  0  0  0  0  0  0  0
    0.3461   -5.8015    0.0000 C   0  0  0  0  0  0  0  0  0  0  0  0
    0.0640   -6.5767    0.0000 C   0  0  0  0  0  0  0  0  0  0  0  0
   -0.1842   -5.1695    0.0000 C   0  0  0  0  0  0  0  0  0  0  0  0
    0.0980   -4.3942    0.0000 C   0  0  0  0  0  0  0  0  0  0  0  0
    1.6249   -3.0135    0.0000 C   0  0  0  0  0  0  0  0  0  0  0  0
  1  2  1  0  0  0  0
  2  3  1  0  0  0  0
  3  4  1  0  0  0  0
  4  5  4  0  0  0  0
  5  6  4  0  0  0  0
  6  7  4  0  0  0  0
  7  8  4  0  0  0  0
  8  9  1  0  0  0  0
  9 10  1  0  0  0  0
 10 11  1  0  0  0  0
 11 12  1  0  0  0  0
 12 13  1  0  0  0  0
 13 14  1  0  0  0  0
 14 15  4  0  0  0  0
 15 16  4  0  0  0  0
 16 17  4  0  0  0  0
 17 18  4  0  0  0  0
 18 19  4  0  0  0  0
 14 19  4  0  0  0  0
 13 20  1  0  0  0  0
 20 21  1  0  0  0  0
 10 21  1  0  0  0  0
  9 22  1  0  0  0  0
 22 23  1  0  0  0  0
 23 24  1  0  0  0  0
 24 25  1  0  0  0  0
 24 26  1  0  0  0  0
 26 27  1  0  0  0  0
  9 27  1  0  0  0  0
  8 28  4  0  0  0  0
  4 28  4  0  0  0  0
M  END
> <activity>
15.5

> <InChiKey>
HKVWLCPNTJYNBO-UHFFFAOYSA-N

$$$$

  Mrv2220 08292413132D          

 28 30  0  0  0  0            999 V2000
    1.4289   -3.3000    0.0000 C   0  0  0  0  0  0  0  0  0  0  0  0
    1.4289   -4.1250    0.0000 C   0  0  0  0  0  0  0  0  0  0  0  0
    0.6039   -4.1250    0.0000 C   0  0  0  0  0  0  0  0  0  0  0  0
    2.2539   -4.1250    0.0000 O   0  0  0  0  0  0  0  0  0  0  0  0
    1.4289   -4.9500    0.0000 C   0  0  0  0  0  0  0  0  0  0  0  0
    2.1434   -5.3625    0.0000 C   0  0  0  0  0  0  0  0  0  0  0  0
    2.1434   -6.1875    0.0000 C   0  0  0  0  0  0  0  0  0  0  0  0
    1.4289   -6.6000    0.0000 C   0  0  0  0  0  0  0  0  0  0  0  0
    1.4289   -7.4250    0.0000 C   0  0  0  0  0  0  0  0  0  0  0  0
    2.1434   -7.8375    0.0000 N   0  0  0  0  0  0  0  0  0  0  0  0
    2.1434   -8.6625    0.0000 C   0  0  0  0  0  0  0  0  0  0  0  0
    2.8579   -9.0750    0.0000 O   0  0  0  0  0  0  0  0  0  0  0  0
    1.4289   -9.0750    0.0000 C   0  0  0  0  0  0  0  0  0  0  0  0
    0.7145   -8.6625    0.0000 C   0  0  0  0  0  0  0  0  0  0  0  0
    0.0000   -9.0750    0.0000 C   0  0  0  0  0  0  0  0  0  0  0  0
    0.0000   -9.9000    0.0000 C   0  0  0  0  0  0  0  0  0  0  0  0
    0.7145  -10.3125    0.0000 N   0  0  0  0  0  0  0  0  0  0  0  0
    1.4289   -9.9000    0.0000 C   0  0  0  0  0  0  0  0  0  0  0  0
    2.1434  -10.3125    0.0000 O   0  0  0  0  0  0  0  0  0  0  0  0
    2.1434  -11.1375    0.0000 C   0  0  0  0  0  0  0  0  0  0  0  0
    2.8579  -11.5500    0.0000 C   0  0  0  0  0  0  0  0  0  0  0  0
    2.8579  -12.3750    0.0000 C   0  0  0  0  0  0  0  0  0  0  0  0
    2.1434  -12.7875    0.0000 C   0  0  0  0  0  0  0  0  0  0  0  0
    2.1434  -13.6125    0.0000 F   0  0  0  0  0  0  0  0  0  0  0  0
    1.4289  -12.3750    0.0000 C   0  0  0  0  0  0  0  0  0  0  0  0
    1.4289  -11.5500    0.0000 C   0  0  0  0  0  0  0  0  0  0  0  0
    0.7145   -6.1875    0.0000 C   0  0  0  0  0  0  0  0  0  0  0  0
    0.7145   -5.3625    0.0000 C   0  0  0  0  0  0  0  0  0  0  0  0
  1  2  1  0  0  0  0
  2  3  1  0  0  0  0
  2  4  1  0  0  0  0
  2  5  1  0  0  0  0
  5  6  4  0  0  0  0
  6  7  4  0  0  0  0
  7  8  4  0  0  0  0
  8  9  1  0  0  0  0
  9 10  1  0  0  0  0
 10 11  1  0  0  0  0
 11 12  2  0  0  0  0
 11 13  1  0  0  0  0
 13 14  4  0  0  0  0
 14 15  4  0  0  0  0
 15 16  4  0  0  0  0
 16 17  4  0  0  0  0
 17 18  4  0  0  0  0
 13 18  4  0  0  0  0
 18 19  1  0  0  0  0
 19 20  1  0  0  0  0
 20 21  4  0  0  0  0
 21 22  4  0  0  0  0
 22 23  4  0  0  0  0
 23 24  1  0  0  0  0
 23 25  4  0  0  0  0
 25 26  4  0  0  0  0
 20 26  4  0  0  0  0
  8 27  4  0  0  0  0
 27 28  4  0  0  0  0
  5 28  4  0  0  0  0
M  END
> <activity>
10.5

> <InChiKey>
UHBUSMAHWHZQKS-UHFFFAOYSA-N

$$$$

  Mrv2220 08292413132D          

 28 29  0  0  0  0            999 V2000
    0.0000   -1.6500    0.0000 C   0  0  0  0  0  0  0  0  0  0  0  0
    0.7145   -1.2375    0.0000 C   0  0  0  0  0  0  0  0  0  0  0  0
    1.4289   -1.6500    0.0000 C   0  0  0  0  0  0  0  0  0  0  0  0
    0.7145   -0.4125    0.0000 C   0  0  0  0  0  0  0  0  0  0  0  0
    0.0000    0.0000    0.0000 C   0  0  0  0  0  0  0  0  0  0  0  0
    0.0000    0.8250    0.0000 C   0  0  0  0  0  0  0  0  0  0  0  0
    0.7145    1.2375    0.0000 C   0  0  0  0  0  0  0  0  0  0  0  0
    1.4289    0.8250    0.0000 C   0  0  0  0  0  0  0  0  0  0  0  0
    2.1434    1.2375    0.0000 C   0  0  0  0  0  0  0  0  0  0  0  0
    2.8579    0.8250    0.0000 C   0  0  0  0  0  0  0  0  0  0  0  0
    2.1434    2.0625    0.0000 C   0  0  0  0  0  0  0  0  0  0  0  0
    1.4289    0.0000    0.0000 C   0  0  0  0  0  0  0  0  0  0  0  0
    2.1434   -0.4125    0.0000 N   0  0  0  0  0  0  0  0  0  0  0  0
    2.1434   -1.2375    0.0000 C   0  0  0  0  0  0  0  0  0  0  0  0
    1.8079   -1.9912    0.0000 O   0  0  0  0  0  0  0  0  0  0  0  0
    2.8579   -1.6500    0.0000 N   0  0  0  0  0  0  0  0  0  0  0  0
    2.8579   -2.4750    0.0000 S   0  0  0  0  0  0  0  0  0  0  0  0
    2.0329   -2.4750    0.0000 O   0  0  0  0  0  0  0  0  0  0  0  0
    3.6829   -2.4750    0.0000 O   0  0  0  0  0  0  0  0  0  0  0  0
    2.8579   -3.3000    0.0000 C   0  0  0  0  0  0  0  0  0  0  0  0
    3.5253   -3.7849    0.0000 C   0  0  0  0  0  0  0  0  0  0  0  0
    3.2704   -4.5695    0.0000 C   0  0  0  0  0  0  0  0  0  0  0  0
    3.7553   -5.2370    0.0000 C   0  0  0  0  0  0  0  0  0  0  0  0
    4.2402   -5.9044    0.0000 C   0  0  0  0  0  0  0  0  0  0  0  0
    3.0879   -5.7219    0.0000 C   0  0  0  0  0  0  0  0  0  0  0  0
    4.4227   -4.7521    0.0000 O   0  0  0  0  0  0  0  0  0  0  0  0
    2.4454   -4.5695    0.0000 C   0  0  0  0  0  0  0  0  0  0  0  0
    2.1904   -3.7849    0.0000 O   0  0  0  0  0  0  0  0  0  0  0  0
  1  2  1  0  0  0  0
  2  3  1  0  0  0  0
  2  4  1  0  0  0  0
  4  5  4  0  0  0  0
  5  6  4  0  0  0  0
  6  7  4  0  0  0  0
  7  8  4  0  0  0  0
  8  9  1  0  0  0  0
  9 10  1  0  0  0  0
  9 11  1  0  0  0  0
  8 12  4  0  0  0  0
  4 12  4  0  0  0  0
 12 13  1  0  0  0  0
 13 14  1  0  0  0  0
 14 15  2  0  0  0  0
 14 16  1  0  0  0  0
 16 17  1  0  0  0  0
 17 18  2  0  0  0  0
 17 19  2  0  0  0  0
 17 20  1  0  0  0  0
 20 21  4  0  0  0  0
 21 22  4  0  0  0  0
 22 23  1  0  0  0  0
 23 24  1  0  0  0  0
 23 25  1  0  0  0  0
 23 26  1  0  0  0  0
 22 27  4  0  0  0  0
 27 28  4  0  0  0  0
 20 28  4  0  0  0  0
M  END
> <activity>
37.3

> <InChiKey>
MRKXXRUHPFFURP-UHFFFAOYSA-N

$$$$

  Mrv2220 08292413132D          

 32 34  0  0  0  0            999 V2000
    5.7158   -2.4750    0.0000 O   0  0  0  0  0  0  0  0  0  0  0  0
    6.4302   -2.8875    0.0000 C   0  0  0  0  0  0  0  0  0  0  0  0
    6.4302   -3.7125    0.0000 O   0  0  0  0  0  0  0  0  0  0  0  0
    7.1447   -2.4750    0.0000 C   0  0  0  0  0  0  0  0  0  0  0  0
    7.8592   -2.8875    0.0000 C   0  0  0  0  0  0  0  0  0  0  0  0
    8.5737   -2.4750    0.0000 N   0  0  0  0  0  0  0  0  0  0  0  0
    8.5737   -1.6500    0.0000 C   0  0  0  0  0  0  0  0  0  0  0  0
    9.3941   -1.7362    0.0000 C   0  0  0  0  0  0  0  0  0  0  0  0
    9.7297   -2.4899    0.0000 O   0  0  0  0  0  0  0  0  0  0  0  0
    9.8791   -1.0688    0.0000 N   0  0  0  0  0  0  0  0  0  0  0  0
   10.6995   -1.1550    0.0000 O   0  0  0  0  0  0  0  0  0  0  0  0
    7.7532   -1.7362    0.0000 C   0  0  0  0  0  0  0  0  0  0  0  0
    7.4176   -0.9826    0.0000 C   0  0  0  0  0  0  0  0  0  0  0  0
    8.0307   -0.4305    0.0000 C   0  0  0  0  0  0  0  0  0  0  0  0
    8.7452   -0.8430    0.0000 C   0  0  0  0  0  0  0  0  0  0  0  0
    9.2881   -2.8875    0.0000 S   0  0  0  0  0  0  0  0  0  0  0  0
    8.8756   -3.6020    0.0000 O   0  0  0  0  0  0  0  0  0  0  0  0
   10.0418   -2.5519    0.0000 O   0  0  0  0  0  0  0  0  0  0  0  0
   10.0026   -3.3000    0.0000 C   0  0  0  0  0  0  0  0  0  0  0  0
   10.7171   -2.8875    0.0000 C   0  0  0  0  0  0  0  0  0  0  0  0
   11.4315   -3.3000    0.0000 C   0  0  0  0  0  0  0  0  0  0  0  0
   11.4315   -4.1250    0.0000 C   0  0  0  0  0  0  0  0  0  0  0  0
   12.1460   -4.5375    0.0000 O   0  0  0  0  0  0  0  0  0  0  0  0
   12.1460   -5.3625    0.0000 C   0  0  0  0  0  0  0  0  0  0  0  0
   12.8605   -5.7750    0.0000 C   0  0  0  0  0  0  0  0  0  0  0  0
   12.8605   -6.6000    0.0000 C   0  0  0  0  0  0  0  0  0  0  0  0
   12.1460   -7.0125    0.0000 C   0  0  0  0  0  0  0  0  0  0  0  0
   12.1460   -7.8375    0.0000 F   0  0  0  0  0  0  0  0  0  0  0  0
   11.4315   -6.6000    0.0000 C   0  0  0  0  0  0  0  0  0  0  0  0
   11.4315   -5.7750    0.0000 C   0  0  0  0  0  0  0  0  0  0  0  0
   10.7171   -4.5375    0.0000 C   0  0  0  0  0  0  0  0  0  0  0  0
   10.0026   -4.1250    0.0000 C   0  0  0  0  0  0  0  0  0  0  0  0
  1  2  2  0  0  0  0
  2  3  1  0  0  0  0
  2  4  1  0  0  0  0
  4  5  1  0  0  0  0
  5  6  1  0  0  0  0
  6  7  1  0  0  0  0
  7  8  1  0  0  0  0
  8  9  2  0  0  0  0
  8 10  1  0  0  0  0
 10 11  1  0  0  0  0
  7 12  1  0  0  0  0
 12 13  1  0  0  0  0
 13 14  1  0  0  0  0
 14 15  1  0  0  0  0
  7 15  1  0  0  0  0
  6 16  1  0  0  0  0
 16 17  2  0  0  0  0
 16 18  2  0  0  0  0
 16 19  1  0  0  0  0
 19 20  4  0  0  0  0
 20 21  4  0  0  0  0
 21 22  4  0  0  0  0
 22 23  1  0  0  0  0
 23 24  1  0  0  0  0
 24 25  4  0  0  0  0
 25 26  4  0  0  0  0
 26 27  4  0  0  0  0
 27 28  1  0  0  0  0
 27 29  4  0  0  0  0
 29 30  4  0  0  0  0
 24 30  4  0  0  0  0
 22 31  4  0  0  0  0
 31 32  4  0  0  0  0
 19 32  4  0  0  0  0
M  END
> <activity>
30.0

> <InChiKey>
VHHGUBHZBLPTKL-UHFFFAOYSA-N

$$$$

  Mrv2220 08292413132D          

 41 43  0  0  0  0            999 V2000
    0.0000   -2.4750    0.0000 C   0  0  0  0  0  0  0  0  0  0  0  0
    0.0000   -1.6500    0.0000 C   0  0  0  0  0  0  0  0  0  0  0  0
    0.7145   -1.2375    0.0000 C   0  0  0  0  0  0  0  0  0  0  0  0
    0.7145   -0.4125    0.0000 C   0  0  0  0  0  0  0  0  0  0  0  0
    1.4289    0.0000    0.0000 C   0  0  0  0  0  0  0  0  0  0  0  0
    1.4289    0.8250    0.0000 N   0  0  0  0  0  0  0  0  0  0  0  0
    2.1434    1.2375    0.0000 C   0  0  0  0  0  0  0  0  0  0  0  0
    2.1434    2.0625    0.0000 C   0  0  0  0  0  0  0  0  0  0  0  0
    1.4289    2.4750    0.0000 C   0  0  0  0  0  0  0  0  0  0  0  0
    1.4289    3.3000    0.0000 C   0  0  0  0  0  0  0  0  0  0  0  0
    0.7145    3.7125    0.0000 C   0  0  0  0  0  0  0  0  0  0  0  0
    0.0000    4.1250    0.0000 F   0  0  0  0  0  0  0  0  0  0  0  0
    0.3020    2.9980    0.0000 F   0  0  0  0  0  0  0  0  0  0  0  0
    1.1270    4.4270    0.0000 F   0  0  0  0  0  0  0  0  0  0  0  0
    2.1434    3.7125    0.0000 C   0  0  0  0  0  0  0  0  0  0  0  0
    2.8579    3.3000    0.0000 C   0  0  0  0  0  0  0  0  0  0  0  0
    3.5724    3.7125    0.0000 C   0  0  0  0  0  0  0  0  0  0  0  0
    4.2868    4.1250    0.0000 F   0  0  0  0  0  0  0  0  0  0  0  0
    3.9849    2.9980    0.0000 F   0  0  0  0  0  0  0  0  0  0  0  0
    3.1599    4.4270    0.0000 F   0  0  0  0  0  0  0  0  0  0  0  0
    2.8579    2.4750    0.0000 C   0  0  0  0  0  0  0  0  0  0  0  0
    0.7145    1.2375    0.0000 C   0  0  0  0  0  0  0  0  0  0  0  0
    0.7145    2.0625    0.0000 C   0  0  0  0  0  0  0  0  0  0  0  0
    0.0000    0.8250    0.0000 O   0  0  0  0  0  0  0  0  0  0  0  0
    2.1434   -0.4125    0.0000 C   0  0  0  0  0  0  0  0  0  0  0  0
    2.8579    0.0000    0.0000 C   0  0  0  0  0  0  0  0  0  0  0  0
    3.5724   -0.4125    0.0000 C   0  0  0  0  0  0  0  0  0  0  0  0
    4.2868   -0.0000    0.0000 C   0  0  0  0  0  0  0  0  0  0  0  0
    5.0013    0.4125    0.0000 F   0  0  0  0  0  0  0  0  0  0  0  0
    4.6993   -0.7145    0.0000 F   0  0  0  0  0  0  0  0  0  0  0  0
    3.8743    0.7145    0.0000 F   0  0  0  0  0  0  0  0  0  0  0  0
    3.5724   -1.2375    0.0000 C   0  0  0  0  0  0  0  0  0  0  0  0
    2.8579   -1.6500    0.0000 C   0  0  0  0  0  0  0  0  0  0  0  0
    2.1434   -1.2375    0.0000 C   0  0  0  0  0  0  0  0  0  0  0  0
    1.4289   -1.6500    0.0000 N   0  0  0  0  0  0  0  0  0  0  0  0
    1.4289   -2.4750    0.0000 C   0  0  0  0  0  0  0  0  0  0  0  0
    0.7145   -2.8875    0.0000 O   0  0  0  0  0  0  0  0  0  0  0  0
    2.1434   -2.8875    0.0000 O   0  0  0  0  0  0  0  0  0  0  0  0
    2.1434   -3.7125    0.0000 C   0  0  0  0  0  0  0  0  0  0  0  0
    2.8579   -4.1250    0.0000 C   0  0  0  0  0  0  0  0  0  0  0  0
    1.4289   -4.1250    0.0000 C   0  0  0  0  0  0  0  0  0  0  0  0
  1  2  1  0  0  0  0
  2  3  1  0  0  0  0
  3  4  1  0  0  0  0
  4  5  1  0  0  0  0
  5  6  1  0  0  0  0
  6  7  1  0  0  0  0
  7  8  1  0  0  0  0
  8  9  4  0  0  0  0
  9 10  4  0  0  0  0
 10 11  1  0  0  0  0
 11 12  1  0  0  0  0
 11 13  1  0  0  0  0
 11 14  1  0  0  0  0
 10 15  4  0  0  0  0
 15 16  4  0  0  0  0
 16 17  1  0  0  0  0
 17 18  1  0  0  0  0
 17 19  1  0  0  0  0
 17 20  1  0  0  0  0
 16 21  4  0  0  0  0
  8 21  4  0  0  0  0
  6 22  1  0  0  0  0
 22 23  1  0  0  0  0
 22 24  2  0  0  0  0
  5 25  1  0  0  0  0
 25 26  4  0  0  0  0
 26 27  4  0  0  0  0
 27 28  1  0  0  0  0
 28 29  1  0  0  0  0
 28 30  1  0  0  0  0
 28 31  1  0  0  0  0
 27 32  4  0  0  0  0
 32 33  4  0  0  0  0
 33 34  4  0  0  0  0
 25 34  4  0  0  0  0
 34 35  1  0  0  0  0
  3 35  1  0  0  0  0
 35 36  1  0  0  0  0
 36 37  2  0  0  0  0
 36 38  1  0  0  0  0
 38 39  1  0  0  0  0
 39 40  1  0  0  0  0
 39 41  1  0  0  0  0
M  END
> <activity>
41.7

> <InChiKey>
TUPKOWFPVAXQFP-UHFFFAOYSA-N

$$$$

  Mrv2220 08292413132D          

 28 30  0  0  0  0            999 V2000
    5.0353    0.1200    0.0000 O   0  0  0  0  0  0  0  0  0  0  0  0
    4.7532   -0.6553    0.0000 C   0  0  0  0  0  0  0  0  0  0  0  0
    3.9407   -0.7985    0.0000 N   0  0  0  0  0  0  0  0  0  0  0  0
    3.6585   -1.5738    0.0000 O   0  0  0  0  0  0  0  0  0  0  0  0
    5.2835   -1.2873    0.0000 C   0  0  0  0  0  0  0  0  0  0  0  0
    5.8138   -0.6553    0.0000 N   0  0  0  0  0  0  0  0  0  0  0  0
    6.6262   -0.7985    0.0000 S   0  0  0  0  0  0  0  0  0  0  0  0
    6.4830   -1.6110    0.0000 O   0  0  0  0  0  0  0  0  0  0  0  0
    6.7695    0.0139    0.0000 O   0  0  0  0  0  0  0  0  0  0  0  0
    7.4387   -0.9418    0.0000 C   0  0  0  0  0  0  0  0  0  0  0  0
    7.9690   -0.3098    0.0000 C   0  0  0  0  0  0  0  0  0  0  0  0
    8.7815   -0.4531    0.0000 C   0  0  0  0  0  0  0  0  0  0  0  0
    9.0636   -1.2283    0.0000 C   0  0  0  0  0  0  0  0  0  0  0  0
    9.8761   -1.3716    0.0000 O   0  0  0  0  0  0  0  0  0  0  0  0
   10.1583   -2.1468    0.0000 C   0  0  0  0  0  0  0  0  0  0  0  0
   10.9707   -2.2901    0.0000 C   0  0  0  0  0  0  0  0  0  0  0  0
   11.2529   -3.0653    0.0000 C   0  0  0  0  0  0  0  0  0  0  0  0
   10.7226   -3.6973    0.0000 C   0  0  0  0  0  0  0  0  0  0  0  0
   11.0048   -4.4726    0.0000 F   0  0  0  0  0  0  0  0  0  0  0  0
    9.9101   -3.5540    0.0000 C   0  0  0  0  0  0  0  0  0  0  0  0
    9.6280   -2.7788    0.0000 C   0  0  0  0  0  0  0  0  0  0  0  0
    8.5333   -1.8603    0.0000 C   0  0  0  0  0  0  0  0  0  0  0  0
    7.7209   -1.7170    0.0000 C   0  0  0  0  0  0  0  0  0  0  0  0
    4.5690   -1.6998    0.0000 C   0  0  0  0  0  0  0  0  0  0  0  0
    4.5690   -2.5248    0.0000 C   0  0  0  0  0  0  0  0  0  0  0  0
    5.2835   -2.9373    0.0000 O   0  0  0  0  0  0  0  0  0  0  0  0
    5.9979   -2.5248    0.0000 C   0  0  0  0  0  0  0  0  0  0  0  0
    5.9979   -1.6998    0.0000 C   0  0  0  0  0  0  0  0  0  0  0  0
  1  2  2  0  0  0  0
  2  3  1  0  0  0  0
  3  4  1  0  0  0  0
  2  5  1  0  0  0  0
  5  6  1  0  0  0  0
  6  7  1  0  0  0  0
  7  8  2  0  0  0  0
  7  9  2  0  0  0  0
  7 10  1  0  0  0  0
 10 11  4  0  0  0  0
 11 12  4  0  0  0  0
 12 13  4  0  0  0  0
 13 14  1  0  0  0  0
 14 15  1  0  0  0  0
 15 16  4  0  0  0  0
 16 17  4  0  0  0  0
 17 18  4  0  0  0  0
 18 19  1  0  0  0  0
 18 20  4  0  0  0  0
 20 21  4  0  0  0  0
 15 21  4  0  0  0  0
 13 22  4  0  0  0  0
 22 23  4  0  0  0  0
 10 23  4  0  0  0  0
  5 24  1  0  0  0  0
 24 25  1  0  0  0  0
 25 26  1  0  0  0  0
 26 27  1  0  0  0  0
 27 28  1  0  0  0  0
  5 28  1  0  0  0  0
M  END
> <activity>
48.4

> <InChiKey>
ZBRHTUMWSDPCMI-UHFFFAOYSA-N

$$$$

  Mrv2220 08292413132D          

 19 20  0  0  0  0            999 V2000
    2.8579    0.8250    0.0000 C   0  0  0  0  0  0  0  0  0  0  0  0
    2.8579    0.0000    0.0000 N   0  0  0  0  0  0  0  0  0  0  0  0
    2.1434   -0.4125    0.0000 C   0  0  0  0  0  0  0  0  0  0  0  0
    2.1434   -1.2375    0.0000 C   0  0  0  0  0  0  0  0  0  0  0  0
    2.8579   -1.6500    0.0000 C   0  0  0  0  0  0  0  0  0  0  0  0
    2.8579   -2.4750    0.0000 C   0  0  0  0  0  0  0  0  0  0  0  0
    3.5724   -2.8875    0.0000 F   0  0  0  0  0  0  0  0  0  0  0  0
    2.1434   -2.8875    0.0000 C   0  0  0  0  0  0  0  0  0  0  0  0
    1.4289   -2.4750    0.0000 C   0  0  0  0  0  0  0  0  0  0  0  0
    1.4289   -1.6500    0.0000 C   0  0  0  0  0  0  0  0  0  0  0  0
    0.7145   -1.2375    0.0000 O   0  0  0  0  0  0  0  0  0  0  0  0
    0.7145   -0.4125    0.0000 C   0  0  0  0  0  0  0  0  0  0  0  0
    0.0000    0.0000    0.0000 C   0  0  0  0  0  0  0  0  0  0  0  0
    0.0000    0.8250    0.0000 C   0  0  0  0  0  0  0  0  0  0  0  0
    0.7145    1.2375    0.0000 C   0  0  0  0  0  0  0  0  0  0  0  0
    0.7145    2.0625    0.0000 Cl  0  0  0  0  0  0  0  0  0  0  0  0
    1.4289    0.8250    0.0000 C   0  0  0  0  0  0  0  0  0  0  0  0
    2.1434    1.2375    0.0000 Cl  0  0  0  0  0  0  0  0  0  0  0  0
    1.4289    0.0000    0.0000 C   0  0  0  0  0  0  0  0  0  0  0  0
  1  2  1  0  0  0  0
  2  3  1  0  0  0  0
  3  4  1  0  0  0  0
  4  5  4  0  0  0  0
  5  6  4  0  0  0  0
  6  7  1  0  0  0  0
  6  8  4  0  0  0  0
  8  9  4  0  0  0  0
  9 10  4  0  0  0  0
  4 10  4  0  0  0  0
 10 11  1  0  0  0  0
 11 12  1  0  0  0  0
 12 13  4  0  0  0  0
 13 14  4  0  0  0  0
 14 15  4  0  0  0  0
 15 16  1  0  0  0  0
 15 17  4  0  0  0  0
 17 18  1  0  0  0  0
 17 19  4  0  0  0  0
 12 19  4  0  0  0  0
M  END
> <activity>
35.5

> <InChiKey>
FQEBOQLYHASAOY-UHFFFAOYSA-N

$$$$

  Mrv2220 08292413132D          

 30 33  0  0  0  0            999 V2000
    9.7825    6.4729    0.0000 C   0  0  0  0  0  0  0  0  0  0  0  0
    9.0681    6.0604    0.0000 C   0  0  0  0  0  0  0  0  0  0  0  0
    8.6556    6.7749    0.0000 C   0  0  0  0  0  0  0  0  0  0  0  0
    9.4806    5.3460    0.0000 O   0  0  0  0  0  0  0  0  0  0  0  0
    8.3536    5.6479    0.0000 C   0  0  0  0  0  0  0  0  0  0  0  0
    8.3536    4.8229    0.0000 C   0  0  0  0  0  0  0  0  0  0  0  0
    7.6391    4.4104    0.0000 C   0  0  0  0  0  0  0  0  0  0  0  0
    6.9246    4.8229    0.0000 C   0  0  0  0  0  0  0  0  0  0  0  0
    6.2102    4.4104    0.0000 C   0  0  0  0  0  0  0  0  0  0  0  0
    6.2102    3.5854    0.0000 N   0  0  0  0  0  0  0  0  0  0  0  0
    5.4957    3.1729    0.0000 C   0  0  0  0  0  0  0  0  0  0  0  0
    5.4957    2.3479    0.0000 O   0  0  0  0  0  0  0  0  0  0  0  0
    4.7812    3.5854    0.0000 C   0  0  0  0  0  0  0  0  0  0  0  0
    4.7812    4.4104    0.0000 C   0  0  0  0  0  0  0  0  0  0  0  0
    4.0668    4.8229    0.0000 C   0  0  0  0  0  0  0  0  0  0  0  0
    3.3523    4.4104    0.0000 C   0  0  0  0  0  0  0  0  0  0  0  0
    3.3523    3.5854    0.0000 N   0  0  0  0  0  0  0  0  0  0  0  0
    4.0668    3.1729    0.0000 C   0  0  0  0  0  0  0  0  0  0  0  0
    4.0668    2.3479    0.0000 O   0  0  0  0  0  0  0  0  0  0  0  0
    3.3523    1.9354    0.0000 C   0  0  0  0  0  0  0  0  0  0  0  0
    3.3523    1.1104    0.0000 C   0  0  0  0  0  0  0  0  0  0  0  0
    2.6378    0.6979    0.0000 C   0  0  0  0  0  0  0  0  0  0  0  0
    1.9233    1.1104    0.0000 C   0  0  0  0  0  0  0  0  0  0  0  0
    1.1387    0.8555    0.0000 N   0  0  0  0  0  0  0  0  0  0  0  0
    0.6538    1.5229    0.0000 O   0  0  0  0  0  0  0  0  0  0  0  0
    1.1387    2.1904    0.0000 N   0  0  0  0  0  0  0  0  0  0  0  0
    1.9233    1.9354    0.0000 C   0  0  0  0  0  0  0  0  0  0  0  0
    2.6378    2.3479    0.0000 C   0  0  0  0  0  0  0  0  0  0  0  0
    6.9246    5.6479    0.0000 C   0  0  0  0  0  0  0  0  0  0  0  0
    7.6391    6.0604    0.0000 C   0  0  0  0  0  0  0  0  0  0  0  0
  1  2  1  0  0  0  0
  2  3  1  0  0  0  0
  2  4  1  0  0  0  0
  2  5  1  0  0  0  0
  5  6  4  0  0  0  0
  6  7  4  0  0  0  0
  7  8  4  0  0  0  0
  8  9  1  0  0  0  0
  9 10  1  0  0  0  0
 10 11  1  0  0  0  0
 11 12  2  0  0  0  0
 11 13  1  0  0  0  0
 13 14  4  0  0  0  0
 14 15  4  0  0  0  0
 15 16  4  0  0  0  0
 16 17  4  0  0  0  0
 17 18  4  0  0  0  0
 13 18  4  0  0  0  0
 18 19  1  0  0  0  0
 19 20  1  0  0  0  0
 20 21  4  0  0  0  0
 21 22  4  0  0  0  0
 22 23  4  0  0  0  0
 23 24  4  0  0  0  0
 24 25  4  0  0  0  0
 25 26  4  0  0  0  0
 26 27  4  0  0  0  0
 23 27  4  0  0  0  0
 27 28  4  0  0  0  0
 20 28  4  0  0  0  0
  8 29  4  0  0  0  0
 29 30  4  0  0  0  0
  5 30  4  0  0  0  0
M  END
> <activity>
5.1

> <InChiKey>
QYZRHDNGOVTVDB-UHFFFAOYSA-N

$$$$

  Mrv2220 08292413132D          

 25 27  0  0  0  0            999 V2000
    3.2789    3.7125    0.0000 C   0  0  0  0  0  0  0  0  0  0  0  0
    3.9934    3.3000    0.0000 C   0  0  0  0  0  0  0  0  0  0  0  0
    4.7079    3.7125    0.0000 C   0  0  0  0  0  0  0  0  0  0  0  0
    5.4223    3.3000    0.0000 C   0  0  0  0  0  0  0  0  0  0  0  0
    6.1368    3.7125    0.0000 N   0  0  0  0  0  0  0  0  0  0  0  0
    6.8513    3.3000    0.0000 C   0  0  0  0  0  0  0  0  0  0  0  0
    6.8513    2.4750    0.0000 O   0  0  0  0  0  0  0  0  0  0  0  0
    7.5658    3.7125    0.0000 C   0  0  0  0  0  0  0  0  0  0  0  0
    8.2802    3.3000    0.0000 O   0  0  0  0  0  0  0  0  0  0  0  0
    7.5658    4.5375    0.0000 O   0  0  0  0  0  0  0  0  0  0  0  0
    5.4223    2.4750    0.0000 C   0  0  0  0  0  0  0  0  0  0  0  0
    4.7079    2.0625    0.0000 C   0  0  0  0  0  0  0  0  0  0  0  0
    4.7079    1.2375    0.0000 C   0  0  0  0  0  0  0  0  0  0  0  0
    3.9934    2.4750    0.0000 C   0  0  0  0  0  0  0  0  0  0  0  0
    3.2789    2.0625    0.0000 O   0  0  0  0  0  0  0  0  0  0  0  0
    3.2789    1.2375    0.0000 C   0  0  0  0  0  0  0  0  0  0  0  0
    3.9934    0.8250    0.0000 C   0  0  0  0  0  0  0  0  0  0  0  0
    3.9934    0.0000    0.0000 C   0  0  0  0  0  0  0  0  0  0  0  0
    3.2789   -0.4125    0.0000 C   0  0  0  0  0  0  0  0  0  0  0  0
    3.2789   -1.2375    0.0000 O   0  0  0  0  0  0  0  0  0  0  0  0
    2.5645    0.0000    0.0000 C   0  0  0  0  0  0  0  0  0  0  0  0
    2.5645    0.8250    0.0000 C   0  0  0  0  0  0  0  0  0  0  0  0
    1.7798    1.0799    0.0000 C   0  0  0  0  0  0  0  0  0  0  0  0
    1.2949    0.4125    0.0000 C   0  0  0  0  0  0  0  0  0  0  0  0
    1.7798   -0.2549    0.0000 C   0  0  0  0  0  0  0  0  0  0  0  0
  1  2  1  0  0  0  0
  2  3  4  0  0  0  0
  3  4  4  0  0  0  0
  4  5  1  0  0  0  0
  5  6  1  0  0  0  0
  6  7  2  0  0  0  0
  6  8  1  0  0  0  0
  8  9  2  0  0  0  0
  8 10  1  0  0  0  0
  4 11  4  0  0  0  0
 11 12  4  0  0  0  0
 12 13  1  0  0  0  0
 12 14  4  0  0  0  0
  2 14  4  0  0  0  0
 14 15  1  0  0  0  0
 15 16  1  0  0  0  0
 16 17  4  0  0  0  0
 17 18  4  0  0  0  0
 18 19  4  0  0  0  0
 19 20  1  0  0  0  0
 19 21  4  0  0  0  0
 21 22  4  0  0  0  0
 16 22  4  0  0  0  0
 22 23  1  0  0  0  0
 23 24  1  0  0  0  0
 24 25  1  0  0  0  0
 21 25  1  0  0  0  0
M  END
> <activity>
105.4

> <InChiKey>
CEYPDXWCYTVSDN-UHFFFAOYSA-N

$$$$

  Mrv2220 08292413132D          

 25 27  0  0  0  0            999 V2000
    0.7145   -2.8875    0.0000 C   0  0  0  0  0  0  0  0  0  0  0  0
    0.7145   -3.7125    0.0000 C   0  0  0  0  0  0  0  0  0  0  0  0
    1.4289   -4.1250    0.0000 N   0  0  0  0  0  0  0  0  0  0  0  0
    1.4289   -4.9500    0.0000 C   0  0  0  0  0  0  0  0  0  0  0  0
    2.1434   -5.3625    0.0000 C   0  0  0  0  0  0  0  0  0  0  0  0
    0.7145   -5.3625    0.0000 N   0  0  0  0  0  0  0  0  0  0  0  0
    0.0000   -4.9500    0.0000 C   0  0  0  0  0  0  0  0  0  0  0  0
   -0.7145   -5.3625    0.0000 N   0  0  0  0  0  0  0  0  0  0  0  0
   -0.7145   -6.1875    0.0000 C   0  0  0  0  0  0  0  0  0  0  0  0
   -1.4289   -6.6000    0.0000 C   0  0  0  0  0  0  0  0  0  0  0  0
   -1.4289   -7.4250    0.0000 C   0  0  0  0  0  0  0  0  0  0  0  0
   -2.1434   -6.1875    0.0000 N   0  0  0  0  0  0  0  0  0  0  0  0
   -2.8579   -6.6000    0.0000 C   0  0  0  0  0  0  0  0  0  0  0  0
   -2.8579   -7.4250    0.0000 C   0  0  0  0  0  0  0  0  0  0  0  0
   -3.5724   -7.8375    0.0000 C   0  0  0  0  0  0  0  0  0  0  0  0
   -4.2868   -7.4250    0.0000 N   0  0  0  0  0  0  0  0  0  0  0  0
   -4.2868   -6.6000    0.0000 C   0  0  0  0  0  0  0  0  0  0  0  0
   -5.0013   -6.1875    0.0000 C   0  0  0  0  0  0  0  0  0  0  0  0
   -5.7158   -6.6000    0.0000 C   0  0  0  0  0  0  0  0  0  0  0  0
   -5.0013   -5.3625    0.0000 O   0  0  0  0  0  0  0  0  0  0  0  0
   -3.5724   -6.1875    0.0000 N   0  0  0  0  0  0  0  0  0  0  0  0
   -2.1434   -5.3625    0.0000 C   0  0  0  0  0  0  0  0  0  0  0  0
   -2.8579   -4.9500    0.0000 C   0  0  0  0  0  0  0  0  0  0  0  0
   -1.4289   -4.9500    0.0000 C   0  0  0  0  0  0  0  0  0  0  0  0
    0.0000   -4.1250    0.0000 N   0  0  0  0  0  0  0  0  0  0  0  0
  1  2  1  0  0  0  0
  2  3  4  0  0  0  0
  3  4  4  0  0  0  0
  4  5  1  0  0  0  0
  4  6  4  0  0  0  0
  6  7  4  0  0  0  0
  7  8  1  0  0  0  0
  8  9  1  0  0  0  0
  9 10  1  0  0  0  0
 10 11  1  0  0  0  0
 10 12  1  0  0  0  0
 12 13  1  0  0  0  0
 13 14  4  0  0  0  0
 14 15  4  0  0  0  0
 15 16  4  0  0  0  0
 16 17  4  0  0  0  0
 17 18  1  0  0  0  0
 18 19  1  0  0  0  0
 18 20  1  0  0  0  0
 17 21  4  0  0  0  0
 13 21  4  0  0  0  0
 12 22  1  0  0  0  0
 22 23  1  0  0  0  0
 22 24  1  0  0  0  0
  8 24  1  0  0  0  0
  7 25  4  0  0  0  0
  2 25  4  0  0  0  0
M  END
> <activity>
0.4

> <InChiKey>
FTEQMUXMWCGJAF-UHFFFAOYSA-N

$$$$

  Mrv2220 08292413132D          

 33 36  0  0  0  0            999 V2000
    1.2089    4.8229    0.0000 C   0  0  0  0  0  0  0  0  0  0  0  0
    1.2089    5.6479    0.0000 C   0  0  0  0  0  0  0  0  0  0  0  0
    1.9233    6.0604    0.0000 O   0  0  0  0  0  0  0  0  0  0  0  0
    2.6378    5.6479    0.0000 C   0  0  0  0  0  0  0  0  0  0  0  0
    3.3523    6.0604    0.0000 C   0  0  0  0  0  0  0  0  0  0  0  0
    4.0668    5.6479    0.0000 C   0  0  0  0  0  0  0  0  0  0  0  0
    4.0668    4.8229    0.0000 C   0  0  0  0  0  0  0  0  0  0  0  0
    4.7812    4.4104    0.0000 C   0  0  0  0  0  0  0  0  0  0  0  0
    4.7812    3.5854    0.0000 N   0  0  0  0  0  0  0  0  0  0  0  0
    5.4957    3.1729    0.0000 C   0  0  0  0  0  0  0  0  0  0  0  0
    6.2102    3.5854    0.0000 O   0  0  0  0  0  0  0  0  0  0  0  0
    5.4957    2.3479    0.0000 C   0  0  0  0  0  0  0  0  0  0  0  0
    6.2102    1.9354    0.0000 C   0  0  0  0  0  0  0  0  0  0  0  0
    6.2102    1.1104    0.0000 C   0  0  0  0  0  0  0  0  0  0  0  0
    5.4957    0.6979    0.0000 C   0  0  0  0  0  0  0  0  0  0  0  0
    4.7812    1.1104    0.0000 N   0  0  0  0  0  0  0  0  0  0  0  0
    4.7812    1.9354    0.0000 C   0  0  0  0  0  0  0  0  0  0  0  0
    4.0668    2.3479    0.0000 O   0  0  0  0  0  0  0  0  0  0  0  0
    3.3523    1.9354    0.0000 C   0  0  0  0  0  0  0  0  0  0  0  0
    3.3523    1.1104    0.0000 C   0  0  0  0  0  0  0  0  0  0  0  0
    2.6378    0.6979    0.0000 C   0  0  0  0  0  0  0  0  0  0  0  0
    1.9233    1.1104    0.0000 C   0  0  0  0  0  0  0  0  0  0  0  0
    1.9233    1.9354    0.0000 C   0  0  0  0  0  0  0  0  0  0  0  0
    2.6378    2.3479    0.0000 C   0  0  0  0  0  0  0  0  0  0  0  0
    1.1387    2.1904    0.0000 O   0  0  0  0  0  0  0  0  0  0  0  0
    0.6538    1.5229    0.0000 C   0  0  0  0  0  0  0  0  0  0  0  0
    1.1387    0.8555    0.0000 O   0  0  0  0  0  0  0  0  0  0  0  0
    3.3523    4.4104    0.0000 C   0  0  0  0  0  0  0  0  0  0  0  0
    3.3523    3.5854    0.0000 F   0  0  0  0  0  0  0  0  0  0  0  0
    2.6378    4.8229    0.0000 C   0  0  0  0  0  0  0  0  0  0  0  0
    0.4944    6.0604    0.0000 C   0  0  0  0  0  0  0  0  0  0  0  0
   -0.2201    5.6479    0.0000 O   0  0  0  0  0  0  0  0  0  0  0  0
    0.4944    6.8854    0.0000 O   0  0  0  0  0  0  0  0  0  0  0  0
  1  2  1  0  0  0  0
  2  3  1  0  0  0  0
  3  4  1  0  0  0  0
  4  5  4  0  0  0  0
  5  6  4  0  0  0  0
  6  7  4  0  0  0  0
  7  8  1  0  0  0  0
  8  9  1  0  0  0  0
  9 10  1  0  0  0  0
 10 11  2  0  0  0  0
 10 12  1  0  0  0  0
 12 13  4  0  0  0  0
 13 14  4  0  0  0  0
 14 15  4  0  0  0  0
 15 16  4  0  0  0  0
 16 17  4  0  0  0  0
 12 17  4  0  0  0  0
 17 18  1  0  0  0  0
 18 19  1  0  0  0  0
 19 20  4  0  0  0  0
 20 21  4  0  0  0  0
 21 22  4  0  0  0  0
 22 23  4  0  0  0  0
 23 24  4  0  0  0  0
 19 24  4  0  0  0  0
 23 25  1  0  0  0  0
 25 26  1  0  0  0  0
 26 27  1  0  0  0  0
 22 27  1  0  0  0  0
  7 28  4  0  0  0  0
 28 29  1  0  0  0  0
 28 30  4  0  0  0  0
  4 30  4  0  0  0  0
  2 31  1  0  0  0  0
 31 32  2  0  0  0  0
 31 33  1  0  0  0  0
M  END
> <activity>
11.1

> <InChiKey>
CNIGFESSDPOCKS-UHFFFAOYSA-N

$$$$

  Mrv2220 08292413132D          

 78 77  0  0  0  0            999 V2000
   13.7526   16.1901    0.0000 C   0  0  0  0  0  0  0  0  0  0  0  0
   13.7526   15.3651    0.0000 C   0  0  0  0  0  0  0  0  0  0  0  0
   14.4671   14.9526    0.0000 C   0  0  0  0  0  0  0  0  0  0  0  0
   14.4671   14.1276    0.0000 C   0  0  0  0  0  0  0  0  0  0  0  0
   15.1816   13.7151    0.0000 C   0  0  0  0  0  0  0  0  0  0  0  0
   15.1816   12.8901    0.0000 C   0  0  0  0  0  0  0  0  0  0  0  0
   15.8961   12.4776    0.0000 C   0  0  0  0  0  0  0  0  0  0  0  0
   16.6105   12.8901    0.0000 O   0  0  0  0  0  0  0  0  0  0  0  0
   15.8961   11.6526    0.0000 C   0  0  0  0  0  0  0  0  0  0  0  0
   16.6105   11.2401    0.0000 C   0  0  0  0  0  0  0  0  0  0  0  0
   16.6105   10.4151    0.0000 C   0  0  0  0  0  0  0  0  0  0  0  0
   17.3250   10.0026    0.0000 C   0  0  0  0  0  0  0  0  0  0  0  0
   18.0395   10.4151    0.0000 C   0  0  0  0  0  0  0  0  0  0  0  0
   18.7539   10.0026    0.0000 C   0  0  0  0  0  0  0  0  0  0  0  0
   19.4684   10.4151    0.0000 C   0  0  0  0  0  0  0  0  0  0  0  0
   20.1829   10.0026    0.0000 C   0  0  0  0  0  0  0  0  0  0  0  0
   20.8974   10.4151    0.0000 C   0  0  0  0  0  0  0  0  0  0  0  0
   21.6118   10.0026    0.0000 C   0  0  0  0  0  0  0  0  0  0  0  0
   22.3263   10.4151    0.0000 O   0  0  0  0  0  0  0  0  0  0  0  0
   23.0408   10.0026    0.0000 C   0  0  0  0  0  0  0  0  0  0  0  0
   23.0408    9.1776    0.0000 O   0  0  0  0  0  0  0  0  0  0  0  0
   23.7552   10.4151    0.0000 O   0  0  0  0  0  0  0  0  0  0  0  0
   24.4697   10.0026    0.0000 C   0  0  0  0  0  0  0  0  0  0  0  0
   25.1842   10.4151    0.0000 C   0  0  0  0  0  0  0  0  0  0  0  0
   25.8987   10.0026    0.0000 O   0  0  0  0  0  0  0  0  0  0  0  0
   26.6131   10.4151    0.0000 C   0  0  0  0  0  0  0  0  0  0  0  0
   27.3276   10.0026    0.0000 C   0  0  0  0  0  0  0  0  0  0  0  0
   28.0421   10.4151    0.0000 C   0  0  0  0  0  0  0  0  0  0  0  0
   28.7565   10.0026    0.0000 O   0  0  0  0  0  0  0  0  0  0  0  0
   29.4710   10.4151    0.0000 C   0  0  0  0  0  0  0  0  0  0  0  0
   30.1855   10.0026    0.0000 C   0  0  0  0  0  0  0  0  0  0  0  0
   30.8999   10.4151    0.0000 O   0  0  0  0  0  0  0  0  0  0  0  0
   31.6144   10.0026    0.0000 C   0  0  0  0  0  0  0  0  0  0  0  0
   31.6144    9.1776    0.0000 O   0  0  0  0  0  0  0  0  0  0  0  0
   32.3289   10.4151    0.0000 O   0  0  0  0  0  0  0  0  0  0  0  0
   33.0434   10.0026    0.0000 C   0  0  0  0  0  0  0  0  0  0  0  0
   33.7578   10.4151    0.0000 C   0  0  0  0  0  0  0  0  0  0  0  0
   34.4723   10.0026    0.0000 C   0  0  0  0  0  0  0  0  0  0  0  0
   35.1868   10.4151    0.0000 C   0  0  0  0  0  0  0  0  0  0  0  0
   35.9012   10.0026    0.0000 C   0  0  0  0  0  0  0  0  0  0  0  0
   36.6157   10.4151    0.0000 C   0  0  0  0  0  0  0  0  0  0  0  0
   37.3302   10.0026    0.0000 C   0  0  0  0  0  0  0  0  0  0  0  0
   38.0447   10.4151    0.0000 C   0  0  0  0  0  0  0  0  0  0  0  0
   38.7591   10.0026    0.0000 C   0  0  0  0  0  0  0  0  0  0  0  0
   39.4736   10.4151    0.0000 C   0  0  0  0  0  0  0  0  0  0  0  0
   39.4736   11.2401    0.0000 C   0  0  0  0  0  0  0  0  0  0  0  0
   38.7591   11.6526    0.0000 O   0  0  0  0  0  0  0  0  0  0  0  0
   40.1881   11.6526    0.0000 C   0  0  0  0  0  0  0  0  0  0  0  0
   40.1881   12.4776    0.0000 C   0  0  0  0  0  0  0  0  0  0  0  0
   40.9025   12.8901    0.0000 C   0  0  0  0  0  0  0  0  0  0  0  0
   40.9025   13.7151    0.0000 C   0  0  0  0  0  0  0  0  0  0  0  0
   41.6170   14.1276    0.0000 C   0  0  0  0  0  0  0  0  0  0  0  0
   41.6170   14.9526    0.0000 C   0  0  0  0  0  0  0  0  0  0  0  0
   27.3276    9.1776    0.0000 O   0  0  0  0  0  0  0  0  0  0  0  0
   26.6131    8.7651    0.0000 C   0  0  0  0  0  0  0  0  0  0  0  0
   26.6131    7.9401    0.0000 C   0  0  0  0  0  0  0  0  0  0  0  0
   25.8987    7.5276    0.0000 O   0  0  0  0  0  0  0  0  0  0  0  0
   25.8987    6.7026    0.0000 C   0  0  0  0  0  0  0  0  0  0  0  0
   26.6131    6.2901    0.0000 O   0  0  0  0  0  0  0  0  0  0  0  0
   25.1842    6.2901    0.0000 O   0  0  0  0  0  0  0  0  0  0  0  0
   25.1842    5.4651    0.0000 C   0  0  0  0  0  0  0  0  0  0  0  0
   24.4697    5.0526    0.0000 C   0  0  0  0  0  0  0  0  0  0  0  0
   24.4697    4.2276    0.0000 C   0  0  0  0  0  0  0  0  0  0  0  0
   23.7552    3.8151    0.0000 C   0  0  0  0  0  0  0  0  0  0  0  0
   23.7552    2.9901    0.0000 C   0  0  0  0  0  0  0  0  0  0  0  0
   23.0408    2.5776    0.0000 C   0  0  0  0  0  0  0  0  0  0  0  0
   23.0408    1.7526    0.0000 C   0  0  0  0  0  0  0  0  0  0  0  0
   22.3263    1.3401    0.0000 C   0  0  0  0  0  0  0  0  0  0  0  0
   22.3263    0.5151    0.0000 C   0  0  0  0  0  0  0  0  0  0  0  0
   21.6118    0.1026    0.0000 C   0  0  0  0  0  0  0  0  0  0  0  0
   20.8974    0.5151    0.0000 C   0  0  0  0  0  0  0  0  0  0  0  0
   20.8974    1.3401    0.0000 O   0  0  0  0  0  0  0  0  0  0  0  0
   20.1829    0.1026    0.0000 C   0  0  0  0  0  0  0  0  0  0  0  0
   19.4684    0.5151    0.0000 C   0  0  0  0  0  0  0  0  0  0  0  0
   18.7539    0.1026    0.0000 C   0  0  0  0  0  0  0  0  0  0  0  0
   18.0395    0.5151    0.0000 C   0  0  0  0  0  0  0  0  0  0  0  0
   17.3250    0.1026    0.0000 C   0  0  0  0  0  0  0  0  0  0  0  0
   16.6105    0.5151    0.0000 C   0  0  0  0  0  0  0  0  0  0  0  0
  1  2  1  0  0  0  0
  2  3  1  0  0  0  0
  3  4  1  0  0  0  0
  4  5  1  0  0  0  0
  5  6  1  0  0  0  0
  6  7  1  0  0  0  0
  7  8  1  0  0  0  0
  7  9  1  0  0  0  0
 10  9  1  4  0  0  0
 10 11  2  0  0  0  0
 11 12  1  0  0  0  0
 12 13  1  0  0  0  0
 13 14  1  0  0  0  0
 14 15  1  0  0  0  0
 15 16  1  0  0  0  0
 16 17  1  0  0  0  0
 17 18  1  0  0  0  0
 18 19  1  0  0  0  0
 19 20  1  0  0  0  0
 20 21  2  0  0  0  0
 20 22  1  0  0  0  0
 22 23  1  0  0  0  0
 23 24  1  0  0  0  0
 24 25  1  0  0  0  0
 25 26  1  0  0  0  0
 26 27  1  0  0  0  0
 27 28  1  0  0  0  0
 28 29  1  0  0  0  0
 29 30  1  0  0  0  0
 30 31  1  0  0  0  0
 31 32  1  0  0  0  0
 32 33  1  0  0  0  0
 33 34  2  0  0  0  0
 33 35  1  0  0  0  0
 35 36  1  0  0  0  0
 36 37  1  0  0  0  0
 37 38  1  0  0  0  0
 38 39  1  0  0  0  0
 39 40  1  0  0  0  0
 40 41  1  0  0  0  0
 41 42  1  0  0  0  0
 43 42  1  4  0  0  0
 43 44  2  0  0  0  0
 44 45  1  0  0  0  0
 45 46  1  0  0  0  0
 46 47  1  0  0  0  0
 46 48  1  0  0  0  0
 48 49  1  0  0  0  0
 49 50  1  0  0  0  0
 50 51  1  0  0  0  0
 51 52  1  0  0  0  0
 52 53  1  0  0  0  0
 27 54  1  0  0  0  0
 54 55  1  0  0  0  0
 55 56  1  0  0  0  0
 56 57  1  0  0  0  0
 57 58  1  0  0  0  0
 58 59  2  0  0  0  0
 58 60  1  0  0  0  0
 60 61  1  0  0  0  0
 61 62  1  0  0  0  0
 62 63  1  0  0  0  0
 63 64  1  0  0  0  0
 64 65  1  0  0  0  0
 65 66  1  0  0  0  0
 66 67  1  0  0  0  0
 68 67  1  4  0  0  0
 68 69  2  0  0  0  0
 69 70  1  0  0  0  0
 70 71  1  0  0  0  0
 71 72  1  0  0  0  0
 71 73  1  0  0  0  0
 73 74  1  0  0  0  0
 74 75  1  0  0  0  0
 75 76  1  0  0  0  0
 76 77  1  0  0  0  0
 77 78  1  0  0  0  0
M  END
> <activity>
-22.0

> <InChiKey>
LXZHFNATOMRESM-UHFFFAOYSA-N

$$$$

  Mrv2220 08292413132D          

 16 16  0  0  0  0            999 V2000
    1.4289    3.3000    0.0000 C   0  0  0  0  0  0  0  0  0  0  0  0
    1.4289    2.4750    0.0000 C   0  0  0  0  0  0  0  0  0  0  0  0
    0.7145    2.0625    0.0000 N   0  0  0  0  0  0  0  0  0  0  0  0
    0.7145    1.2375    0.0000 C   0  0  0  0  0  0  0  0  0  0  0  0
    1.4289    0.8250    0.0000 N   0  0  0  0  0  0  0  0  0  0  0  0
    1.4289   -0.0000    0.0000 C   0  0  0  0  0  0  0  0  0  0  0  0
    2.1434   -0.4125    0.0000 Cl  0  0  0  0  0  0  0  0  0  0  0  0
    0.7145   -0.4125    0.0000 N   0  0  0  0  0  0  0  0  0  0  0  0
    0.0000    0.0000    0.0000 C   0  0  0  0  0  0  0  0  0  0  0  0
   -0.7145   -0.4125    0.0000 N   0  0  0  0  0  0  0  0  0  0  0  0
   -0.7145   -1.2375    0.0000 C   0  0  0  0  0  0  0  0  0  0  0  0
   -1.5395   -1.2375    0.0000 C   0  0  0  0  0  0  0  0  0  0  0  0
    0.1105   -1.2375    0.0000 C   0  0  0  0  0  0  0  0  0  0  0  0
   -0.7145   -2.0625    0.0000 C   0  0  0  0  0  0  0  0  0  0  0  0
   -0.7145   -2.8875    0.0000 N   0  0  0  0  0  0  0  0  0  0  0  0
    0.0000    0.8250    0.0000 N   0  0  0  0  0  0  0  0  0  0  0  0
  1  2  1  0  0  0  0
  2  3  1  0  0  0  0
  3  4  1  0  0  0  0
  4  5  4  0  0  0  0
  5  6  4  0  0  0  0
  6  7  1  0  0  0  0
  6  8  4  0  0  0  0
  8  9  4  0  0  0  0
  9 10  1  0  0  0  0
 10 11  1  0  0  0  0
 11 12  1  0  0  0  0
 11 13  1  0  0  0  0
 11 14  1  0  0  0  0
 14 15  3  0  0  0  0
  9 16  4  0  0  0  0
  4 16  4  0  0  0  0
M  END
> <activity>
30.7

> <InChiKey>
MZZBPDKVEFVLFF-UHFFFAOYSA-N

$$$$

  Mrv2220 08292413132D          

 17 18  0  0  0  0            999 V2000
    1.7309    2.3007    0.0000 C   0  0  0  0  0  0  0  0  0  0  0  0
    1.0164    1.8882    0.0000 S   0  0  0  0  0  0  0  0  0  0  0  0
    0.3020    2.3007    0.0000 C   0  0  0  0  0  0  0  0  0  0  0  0
   -0.4125    1.8882    0.0000 N   0  0  0  0  0  0  0  0  0  0  0  0
   -1.1270    2.3007    0.0000 C   0  0  0  0  0  0  0  0  0  0  0  0
   -1.8414    1.8882    0.0000 N   0  0  0  0  0  0  0  0  0  0  0  0
   -1.8414    1.0632    0.0000 C   0  0  0  0  0  0  0  0  0  0  0  0
   -1.4289    0.3487    0.0000 C   0  0  0  0  0  0  0  0  0  0  0  0
   -2.2539    0.3487    0.0000 C   0  0  0  0  0  0  0  0  0  0  0  0
   -1.1270    3.1257    0.0000 N   0  0  0  0  0  0  0  0  0  0  0  0
   -0.4125    3.5382    0.0000 C   0  0  0  0  0  0  0  0  0  0  0  0
   -0.4125    4.3632    0.0000 N   0  0  0  0  0  0  0  0  0  0  0  0
   -1.1270    4.7757    0.0000 C   0  0  0  0  0  0  0  0  0  0  0  0
   -1.8414    5.1882    0.0000 C   0  0  0  0  0  0  0  0  0  0  0  0
   -0.7145    5.4901    0.0000 C   0  0  0  0  0  0  0  0  0  0  0  0
   -1.5395    4.0612    0.0000 C   0  0  0  0  0  0  0  0  0  0  0  0
    0.3020    3.1257    0.0000 N   0  0  0  0  0  0  0  0  0  0  0  0
  1  2  1  0  0  0  0
  2  3  1  0  0  0  0
  3  4  4  0  0  0  0
  4  5  4  0  0  0  0
  5  6  1  0  0  0  0
  6  7  1  0  0  0  0
  7  8  1  0  0  0  0
  8  9  1  0  0  0  0
  7  9  1  0  0  0  0
  5 10  4  0  0  0  0
 10 11  4  0  0  0  0
 11 12  1  0  0  0  0
 12 13  1  0  0  0  0
 13 14  1  0  0  0  0
 13 15  1  0  0  0  0
 13 16  1  0  0  0  0
 11 17  4  0  0  0  0
  3 17  4  0  0  0  0
M  END
> <activity>
86.0

> <InChiKey>
HDHLIWCXDDZUFH-UHFFFAOYSA-N

$$$$

  Mrv2220 08292413132D          

 17 18  0  0  0  0            999 V2000
    1.5528   -0.9621    0.0000 O   0  0  0  0  0  0  0  0  0  0  0  0
    1.6961   -1.7746    0.0000 C   0  0  0  0  0  0  0  0  0  0  0  0
    2.4713   -2.0567    0.0000 O   0  0  0  0  0  0  0  0  0  0  0  0
    1.0641   -2.3049    0.0000 C   0  0  0  0  0  0  0  0  0  0  0  0
    0.4321   -1.7746    0.0000 C   0  0  0  0  0  0  0  0  0  0  0  0
    0.5753   -0.9621    0.0000 O   0  0  0  0  0  0  0  0  0  0  0  0
   -0.3432   -2.0567    0.0000 N   0  0  0  0  0  0  0  0  0  0  0  0
   -0.9752   -1.5264    0.0000 C   0  0  0  0  0  0  0  0  0  0  0  0
   -1.7504   -1.8086    0.0000 C   0  0  0  0  0  0  0  0  0  0  0  0
   -2.3824   -1.2783    0.0000 C   0  0  0  0  0  0  0  0  0  0  0  0
   -2.2391   -0.4658    0.0000 C   0  0  0  0  0  0  0  0  0  0  0  0
   -2.8711    0.0645    0.0000 Cl  0  0  0  0  0  0  0  0  0  0  0  0
   -1.4639   -0.1837    0.0000 C   0  0  0  0  0  0  0  0  0  0  0  0
   -0.8319   -0.7140    0.0000 C   0  0  0  0  0  0  0  0  0  0  0  0
   -0.0566   -0.4318    0.0000 Cl  0  0  0  0  0  0  0  0  0  0  0  0
    1.4766   -3.0193    0.0000 C   0  0  0  0  0  0  0  0  0  0  0  0
    0.6516   -3.0193    0.0000 C   0  0  0  0  0  0  0  0  0  0  0  0
  1  2  2  0  0  0  0
  2  3  1  0  0  0  0
  2  4  1  0  0  0  0
  4  5  1  0  0  0  0
  5  6  2  0  0  0  0
  5  7  1  0  0  0  0
  7  8  1  0  0  0  0
  8  9  4  0  0  0  0
  9 10  4  0  0  0  0
 10 11  4  0  0  0  0
 11 12  1  0  0  0  0
 11 13  4  0  0  0  0
 13 14  4  0  0  0  0
  8 14  4  0  0  0  0
 14 15  1  0  0  0  0
  4 16  1  0  0  0  0
 16 17  1  0  0  0  0
  4 17  1  0  0  0  0
M  END
> <activity>
96.4

> <InChiKey>
GLWWLNJJJCTFMZ-UHFFFAOYSA-N

$$$$

  Mrv2220 08292413132D          

 12 13  0  0  0  0            999 V2000
    0.2093   -0.1208    0.0000 O   0  0  0  0  0  0  0  0  0  0  0  0
   -0.5052   -0.5333    0.0000 C   0  0  0  0  0  0  0  0  0  0  0  0
   -1.2197   -0.1208    0.0000 C   0  0  0  0  0  0  0  0  0  0  0  0
   -1.9341   -0.5333    0.0000 C   0  0  0  0  0  0  0  0  0  0  0  0
   -2.6486   -0.1208    0.0000 C   0  0  0  0  0  0  0  0  0  0  0  0
   -2.6486    0.7042    0.0000 C   0  0  0  0  0  0  0  0  0  0  0  0
   -1.9341    1.1167    0.0000 C   0  0  0  0  0  0  0  0  0  0  0  0
   -1.2197    0.7042    0.0000 C   0  0  0  0  0  0  0  0  0  0  0  0
   -0.5052   -1.3583    0.0000 C   0  0  0  0  0  0  0  0  0  0  0  0
    0.0782   -1.9417    0.0000 C   0  0  0  0  0  0  0  0  0  0  0  0
   -0.5052   -2.5250    0.0000 C   0  0  0  0  0  0  0  0  0  0  0  0
   -1.0886   -1.9417    0.0000 C   0  0  0  0  0  0  0  0  0  0  0  0
  1  2  2  0  0  0  0
  2  3  1  0  0  0  0
  3  4  4  0  0  0  0
  4  5  4  0  0  0  0
  5  6  4  0  0  0  0
  6  7  4  0  0  0  0
  7  8  4  0  0  0  0
  3  8  4  0  0  0  0
  2  9  1  0  0  0  0
  9 10  1  0  0  0  0
 10 11  1  0  0  0  0
 11 12  1  0  0  0  0
  9 12  1  0  0  0  0
M  END
> <activity>
30.8

> <InChiKey>
MVEBDOSCXOQNAR-UHFFFAOYSA-N

$$$$

  Mrv2220 08292413132D          

 13 13  0  0  0  0            999 V2000
    1.4289    1.6500    0.0000 O   0  0  0  0  0  0  0  0  0  0  0  0
    1.4289    0.8250    0.0000 C   0  0  0  0  0  0  0  0  0  0  0  0
    2.1434    1.2375    0.0000 C   0  0  0  0  0  0  0  0  0  0  0  0
    2.8579    0.8250    0.0000 C   0  0  0  0  0  0  0  0  0  0  0  0
    2.8579   -0.0000    0.0000 C   0  0  0  0  0  0  0  0  0  0  0  0
    2.1434   -0.4125    0.0000 C   0  0  0  0  0  0  0  0  0  0  0  0
    2.1434   -1.2375    0.0000 C   0  0  0  0  0  0  0  0  0  0  0  0
    1.4289   -1.6500    0.0000 C   0  0  0  0  0  0  0  0  0  0  0  0
    0.7145   -1.2375    0.0000 C   0  0  0  0  0  0  0  0  0  0  0  0
    0.7145   -0.4125    0.0000 C   0  0  0  0  0  0  0  0  0  0  0  0
   -0.0000    0.0000    0.0000 C   0  0  0  0  0  0  0  0  0  0  0  0
   -0.0000    0.8250    0.0000 C   0  0  0  0  0  0  0  0  0  0  0  0
    0.7145    1.2375    0.0000 C   0  0  0  0  0  0  0  0  0  0  0  0
  1  2  1  0  0  0  0
  2  3  1  0  0  0  0
  3  4  1  0  0  0  0
  4  5  1  0  0  0  0
  5  6  1  0  0  0  0
  6  7  1  0  0  0  0
  7  8  1  0  0  0  0
  8  9  1  0  0  0  0
  9 10  1  0  0  0  0
 10 11  1  0  0  0  0
 11 12  1  0  0  0  0
 12 13  1  0  0  0  0
  2 13  1  0  0  0  0
M  END
> <activity>
44.9

> <InChiKey>
SFVWPXMPRCIVOK-UHFFFAOYSA-N

$$$$

  Mrv2220 08292413132D          

  7  7  0  0  0  0            999 V2000
    0.7145    2.0625    0.0000 O   0  0  0  0  0  0  0  0  0  0  0  0
    0.7145    1.2375    0.0000 C   0  0  0  0  0  0  0  0  0  0  0  0
    1.4289    0.8250    0.0000 C   0  0  0  0  0  0  0  0  0  0  0  0
    1.4289   -0.0000    0.0000 C   0  0  0  0  0  0  0  0  0  0  0  0
    0.7145   -0.4125    0.0000 C   0  0  0  0  0  0  0  0  0  0  0  0
    0.0000    0.0000    0.0000 C   0  0  0  0  0  0  0  0  0  0  0  0
    0.0000    0.8250    0.0000 C   0  0  0  0  0  0  0  0  0  0  0  0
  1  2  2  0  0  0  0
  2  3  1  0  0  0  0
  3  4  1  0  0  0  0
  4  5  1  0  0  0  0
  5  6  1  0  0  0  0
  6  7  1  0  0  0  0
  2  7  1  0  0  0  0
M  END
> <activity>
1.0

> <InChiKey>
JHIVVAPYMSGYDF-UHFFFAOYSA-N

$$$$

  Mrv2220 08292413132D          

  8  8  0  0  0  0            999 V2000
    0.0000    2.4750    0.0000 O   0  0  0  0  0  0  0  0  0  0  0  0
    0.7145    2.0625    0.0000 N   0  0  0  0  0  0  0  0  0  0  0  0
    0.7145    1.2375    0.0000 C   0  0  0  0  0  0  0  0  0  0  0  0
    1.4289    0.8250    0.0000 C   0  0  0  0  0  0  0  0  0  0  0  0
    1.4289   -0.0000    0.0000 C   0  0  0  0  0  0  0  0  0  0  0  0
    0.7145   -0.4125    0.0000 C   0  0  0  0  0  0  0  0  0  0  0  0
    0.0000    0.0000    0.0000 C   0  0  0  0  0  0  0  0  0  0  0  0
    0.0000    0.8250    0.0000 C   0  0  0  0  0  0  0  0  0  0  0  0
  1  2  1  0  0  0  0
  2  3  2  0  0  0  0
  3  4  1  0  0  0  0
  4  5  1  0  0  0  0
  5  6  1  0  0  0  0
  6  7  1  0  0  0  0
  7  8  1  0  0  0  0
  3  8  1  0  0  0  0
M  END
> <activity>
11.1

> <InChiKey>
VEZUQRBDRNJBJY-UHFFFAOYSA-N

$$$$

  Mrv2220 08292413132D          

 20 21  0  0  0  0            999 V2000
    1.4289   -1.6500    0.0000 C   0  0  0  0  0  0  0  0  0  0  0  0
    1.4289   -2.4750    0.0000 C   0  0  0  0  0  0  0  0  0  0  0  0
    2.1434   -2.8875    0.0000 C   0  0  0  0  0  0  0  0  0  0  0  0
    2.1434   -3.7125    0.0000 C   0  0  0  0  0  0  0  0  0  0  0  0
    2.8579   -4.1250    0.0000 C   0  0  0  0  0  0  0  0  0  0  0  0
    1.4289   -4.1250    0.0000 C   0  0  0  0  0  0  0  0  0  0  0  0
    1.4289   -4.9500    0.0000 O   0  0  0  0  0  0  0  0  0  0  0  0
    0.7145   -3.7125    0.0000 C   0  0  0  0  0  0  0  0  0  0  0  0
    0.0000   -4.1250    0.0000 C   0  0  0  0  0  0  0  0  0  0  0  0
   -0.7145   -3.7125    0.0000 O   0  0  0  0  0  0  0  0  0  0  0  0
    0.0000   -4.9500    0.0000 C   0  0  0  0  0  0  0  0  0  0  0  0
   -0.7145   -5.3625    0.0000 C   0  0  0  0  0  0  0  0  0  0  0  0
   -0.7145   -6.1875    0.0000 C   0  0  0  0  0  0  0  0  0  0  0  0
   -1.4289   -6.6000    0.0000 C   0  0  0  0  0  0  0  0  0  0  0  0
   -1.4289   -7.4250    0.0000 O   0  0  0  0  0  0  0  0  0  0  0  0
   -2.1434   -6.1875    0.0000 N   0  0  0  0  0  0  0  0  0  0  0  0
   -2.1434   -5.3625    0.0000 C   0  0  0  0  0  0  0  0  0  0  0  0
   -2.8579   -4.9500    0.0000 O   0  0  0  0  0  0  0  0  0  0  0  0
   -1.4289   -4.9500    0.0000 C   0  0  0  0  0  0  0  0  0  0  0  0
    0.7145   -2.8875    0.0000 C   0  0  0  0  0  0  0  0  0  0  0  0
  1  2  1  0  0  0  0
  2  3  1  0  0  0  0
  3  4  1  0  0  0  0
  4  5  1  0  0  0  0
  4  6  1  0  0  0  0
  6  7  2  0  0  0  0
  6  8  1  0  0  0  0
  8  9  1  0  0  0  0
  9 10  1  0  0  0  0
  9 11  1  0  0  0  0
 11 12  1  0  0  0  0
 12 13  1  0  0  0  0
 13 14  1  0  0  0  0
 14 15  2  0  0  0  0
 14 16  1  0  0  0  0
 16 17  1  0  0  0  0
 17 18  2  0  0  0  0
 17 19  1  0  0  0  0
 12 19  1  0  0  0  0
  8 20  1  0  0  0  0
  2 20  1  0  0  0  0
M  END
> <activity>
10.8

> <InChiKey>
YPHMISFOHDHNIV-UHFFFAOYSA-N

$$$$

  Mrv2220 08292413132D          

  7  7  0  0  0  0            999 V2000
    0.7145    2.0625    0.0000 N   0  0  0  0  0  0  0  0  0  0  0  0
    0.7145    1.2375    0.0000 C   0  0  0  0  0  0  0  0  0  0  0  0
    1.4289    0.8250    0.0000 C   0  0  0  0  0  0  0  0  0  0  0  0
    1.4289   -0.0000    0.0000 C   0  0  0  0  0  0  0  0  0  0  0  0
    0.7145   -0.4125    0.0000 C   0  0  0  0  0  0  0  0  0  0  0  0
    0.0000    0.0000    0.0000 C   0  0  0  0  0  0  0  0  0  0  0  0
    0.0000    0.8250    0.0000 C   0  0  0  0  0  0  0  0  0  0  0  0
  1  2  1  0  0  0  0
  2  3  1  0  0  0  0
  3  4  1  0  0  0  0
  4  5  1  0  0  0  0
  5  6  1  0  0  0  0
  6  7  1  0  0  0  0
  2  7  1  0  0  0  0
M  END
> <activity>
11.8

> <InChiKey>
PAFZNILMFXTMIY-UHFFFAOYSA-N

$$$$

  Mrv2220 08292413132D          

 14 15  0  0  0  0            999 V2000
    1.4289    0.0000    0.0000 O   0  0  0  0  0  0  0  0  0  0  0  0
    2.1434   -0.4125    0.0000 C   0  0  0  0  0  0  0  0  0  0  0  0
    2.1434   -1.2375    0.0000 C   0  0  0  0  0  0  0  0  0  0  0  0
    2.8579   -1.6500    0.0000 C   0  0  0  0  0  0  0  0  0  0  0  0
    2.8579   -2.4750    0.0000 C   0  0  0  0  0  0  0  0  0  0  0  0
    2.1434   -2.8875    0.0000 C   0  0  0  0  0  0  0  0  0  0  0  0
    1.4289   -2.4750    0.0000 C   0  0  0  0  0  0  0  0  0  0  0  0
    1.4289   -1.6500    0.0000 C   0  0  0  0  0  0  0  0  0  0  0  0
    2.8579    0.0000    0.0000 C   0  0  0  0  0  0  0  0  0  0  0  0
    2.8579    0.8250    0.0000 C   0  0  0  0  0  0  0  0  0  0  0  0
    3.5724    1.2375    0.0000 C   0  0  0  0  0  0  0  0  0  0  0  0
    4.2868    0.8250    0.0000 C   0  0  0  0  0  0  0  0  0  0  0  0
    4.2868    0.0000    0.0000 C   0  0  0  0  0  0  0  0  0  0  0  0
    3.5724   -0.4125    0.0000 C   0  0  0  0  0  0  0  0  0  0  0  0
  1  2  2  0  0  0  0
  2  3  1  0  0  0  0
  3  4  4  0  0  0  0
  4  5  4  0  0  0  0
  5  6  4  0  0  0  0
  6  7  4  0  0  0  0
  7  8  4  0  0  0  0
  3  8  4  0  0  0  0
  2  9  1  0  0  0  0
  9 10  1  0  0  0  0
 10 11  1  0  0  0  0
 11 12  1  0  0  0  0
 12 13  1  0  0  0  0
 13 14  1  0  0  0  0
  9 14  1  0  0  0  0
M  END
> <activity>
45.5

> <InChiKey>
BMFYCFSWWDXEPB-UHFFFAOYSA-N

$$$$

  Mrv2220 08292413132D          

 30 35  0  0  0  0            999 V2000
    3.0068    1.2629    0.0000 C   0  0  0  0  0  0  0  0  0  0  0  0
    3.2147    0.4646    0.0000 C   0  0  0  0  0  0  0  0  0  0  0  0
    4.0100    0.2454    0.0000 C   0  0  0  0  0  0  0  0  0  0  0  0
    4.7051    0.6897    0.0000 C   0  0  0  0  0  0  0  0  0  0  0  0
    5.3425    0.1660    0.0000 C   0  0  0  0  0  0  0  0  0  0  0  0
    5.0414   -0.6021    0.0000 C   0  0  0  0  0  0  0  0  0  0  0  0
    5.5560   -1.2469    0.0000 C   0  0  0  0  0  0  0  0  0  0  0  0
    6.3718   -1.1237    0.0000 C   0  0  0  0  0  0  0  0  0  0  0  0
    6.6729   -0.3556    0.0000 C   0  0  0  0  0  0  0  0  0  0  0  0
    7.4886   -0.2323    0.0000 C   0  0  0  0  0  0  0  0  0  0  0  0
    7.7898    0.5358    0.0000 C   0  0  0  0  0  0  0  0  0  0  0  0
    8.6055    0.6590    0.0000 O   0  0  0  0  0  0  0  0  0  0  0  0
    7.2752    1.1806    0.0000 C   0  0  0  0  0  0  0  0  0  0  0  0
    6.4594    1.0573    0.0000 C   0  0  0  0  0  0  0  0  0  0  0  0
    6.1583    0.2892    0.0000 C   0  0  0  0  0  0  0  0  0  0  0  0
    5.6437    0.9341    0.0000 C   0  0  0  0  0  0  0  0  0  0  0  0
    4.2179   -0.5530    0.0000 C   0  0  0  0  0  0  0  0  0  0  0  0
    3.6304   -1.1322    0.0000 C   0  0  0  0  0  0  0  0  0  0  0  0
    2.8350   -0.9130    0.0000 C   0  0  0  0  0  0  0  0  0  0  0  0
    2.6272   -0.1146    0.0000 C   0  0  0  0  0  0  0  0  0  0  0  0
    1.9823   -0.6292    0.0000 O   0  0  0  0  0  0  0  0  0  0  0  0
    1.2937   -0.1750    0.0000 C   0  0  0  0  0  0  0  0  0  0  0  0
    0.4953   -0.3828    0.0000 C   0  0  0  0  0  0  0  0  0  0  0  0
   -0.0839    0.2047    0.0000 C   0  0  0  0  0  0  0  0  0  0  0  0
   -0.8823   -0.0032    0.0000 C   0  0  0  0  0  0  0  0  0  0  0  0
    0.1353    1.0000    0.0000 C   0  0  0  0  0  0  0  0  0  0  0  0
    0.9337    1.2078    0.0000 N   0  0  0  0  0  0  0  0  0  0  0  0
    1.5129    0.6203    0.0000 C   0  0  0  0  0  0  0  0  0  0  0  0
    2.3370    0.6577    0.0000 C   0  0  0  0  0  0  0  0  0  0  0  0
    2.5562    1.4530    0.0000 C   0  0  0  0  0  0  0  0  0  0  0  0
  1  2  1  0  0  0  0
  2  3  2  0  0  0  0
  3  4  1  0  0  0  0
  4  5  1  0  0  0  0
  5  6  1  0  0  0  0
  6  7  1  0  0  0  0
  7  8  1  0  0  0  0
  8  9  2  0  0  0  0
  9 10  1  0  0  0  0
 10 11  1  0  0  0  0
 11 12  1  0  0  0  0
 11 13  1  0  0  0  0
 13 14  1  0  0  0  0
 14 15  1  0  0  0  0
  9 15  1  0  0  0  0
  5 15  1  0  0  0  0
 15 16  1  0  0  0  0
  6 17  1  0  0  0  0
  3 17  1  0  0  0  0
 17 18  1  0  0  0  0
 18 19  1  0  0  0  0
 19 20  1  0  0  0  0
  2 20  1  0  0  0  0
 20 21  1  0  0  0  0
 21 22  1  0  0  0  0
 22 23  1  0  0  0  0
 23 24  1  0  0  0  0
 24 25  1  0  0  0  0
 24 26  1  0  0  0  0
 26 27  1  0  0  0  0
 27 28  1  0  0  0  0
 22 28  1  0  0  0  0
 28 29  1  0  0  0  0
 20 29  1  0  0  0  0
 29 30  1  0  0  0  0
M  END
> <activity>
-3.7

> <InChiKey>
QASFUMOKHFSJGL-UHFFFAOYSA-N

$$$$

  Mrv2220 08292413132D          

 14 14  0  0  0  0            999 V2000
    2.3677   -0.7406    0.0000 O   0  0  0  0  0  0  0  0  0  0  0  0
    3.1429   -1.0228    0.0000 P   0  0  0  0  0  0  0  0  0  0  0  0
    2.7304   -1.7372    0.0000 N   0  0  0  0  0  0  0  0  0  0  0  0
    1.9054   -1.7372    0.0000 C   0  0  0  0  0  0  0  0  0  0  0  0
    1.4929   -2.4517    0.0000 C   0  0  0  0  0  0  0  0  0  0  0  0
    0.6679   -2.4517    0.0000 Cl  0  0  0  0  0  0  0  0  0  0  0  0
    3.1429   -2.4517    0.0000 C   0  0  0  0  0  0  0  0  0  0  0  0
    3.9679   -2.4517    0.0000 C   0  0  0  0  0  0  0  0  0  0  0  0
    4.3804   -3.1662    0.0000 Cl  0  0  0  0  0  0  0  0  0  0  0  0
    3.2862   -0.2103    0.0000 N   0  0  0  0  0  0  0  0  0  0  0  0
    4.0614    0.0719    0.0000 C   0  0  0  0  0  0  0  0  0  0  0  0
    4.6934   -0.4584    0.0000 C   0  0  0  0  0  0  0  0  0  0  0  0
    4.5501   -1.2709    0.0000 C   0  0  0  0  0  0  0  0  0  0  0  0
    3.7749   -1.5531    0.0000 O   0  0  0  0  0  0  0  0  0  0  0  0
  1  2  2  0  0  0  0
  2  3  1  0  0  0  0
  3  4  1  0  0  0  0
  4  5  1  0  0  0  0
  5  6  1  0  0  0  0
  3  7  1  0  0  0  0
  7  8  1  0  0  0  0
  8  9  1  0  0  0  0
  2 10  1  0  0  0  0
 10 11  1  0  0  0  0
 11 12  1  0  0  0  0
 12 13  1  0  0  0  0
 13 14  1  0  0  0  0
  2 14  1  0  0  0  0
M  END
> <activity>
63.3

> <InChiKey>
CMSMOCZEIVJLDB-UHFFFAOYSA-N

$$$$

  Mrv2220 08292413132D          

 29 31  0  0  0  0            999 V2000
    2.5279   -4.1323    0.0000 C   0  0  0  0  0  0  0  0  0  0  0  0
    3.1599   -3.6020    0.0000 C   0  0  0  0  0  0  0  0  0  0  0  0
    3.7918   -4.1323    0.0000 C   0  0  0  0  0  0  0  0  0  0  0  0
    2.7474   -2.8875    0.0000 C   0  0  0  0  0  0  0  0  0  0  0  0
    2.0329   -2.4750    0.0000 C   0  0  0  0  0  0  0  0  0  0  0  0
    2.0329   -1.6500    0.0000 C   0  0  0  0  0  0  0  0  0  0  0  0
    1.3184   -1.2375    0.0000 Cl  0  0  0  0  0  0  0  0  0  0  0  0
    2.7474   -1.2375    0.0000 Cl  0  0  0  0  0  0  0  0  0  0  0  0
    3.5724   -2.8875    0.0000 C   0  0  0  0  0  0  0  0  0  0  0  0
    4.2868   -2.4750    0.0000 C   0  0  0  0  0  0  0  0  0  0  0  0
    5.0013   -2.8875    0.0000 O   0  0  0  0  0  0  0  0  0  0  0  0
    4.2868   -1.6500    0.0000 O   0  0  0  0  0  0  0  0  0  0  0  0
    5.0013   -1.2375    0.0000 C   0  0  0  0  0  0  0  0  0  0  0  0
    5.7158   -1.6500    0.0000 C   0  0  0  0  0  0  0  0  0  0  0  0
    6.4302   -2.0625    0.0000 N   0  0  0  0  0  0  0  0  0  0  0  0
    5.0013   -0.4125    0.0000 C   0  0  0  0  0  0  0  0  0  0  0  0
    4.2868    0.0000    0.0000 C   0  0  0  0  0  0  0  0  0  0  0  0
    4.2868    0.8250    0.0000 C   0  0  0  0  0  0  0  0  0  0  0  0
    5.0013    1.2375    0.0000 C   0  0  0  0  0  0  0  0  0  0  0  0
    5.0013    2.0625    0.0000 F   0  0  0  0  0  0  0  0  0  0  0  0
    5.7158    0.8250    0.0000 C   0  0  0  0  0  0  0  0  0  0  0  0
    6.4302    1.2375    0.0000 O   0  0  0  0  0  0  0  0  0  0  0  0
    7.1447    0.8250    0.0000 C   0  0  0  0  0  0  0  0  0  0  0  0
    7.8592    1.2375    0.0000 C   0  0  0  0  0  0  0  0  0  0  0  0
    8.5737    0.8250    0.0000 C   0  0  0  0  0  0  0  0  0  0  0  0
    8.5737    0.0000    0.0000 C   0  0  0  0  0  0  0  0  0  0  0  0
    7.8592   -0.4125    0.0000 C   0  0  0  0  0  0  0  0  0  0  0  0
    7.1447    0.0000    0.0000 C   0  0  0  0  0  0  0  0  0  0  0  0
    5.7158    0.0000    0.0000 C   0  0  0  0  0  0  0  0  0  0  0  0
  1  2  1  0  0  0  0
  2  3  1  0  0  0  0
  2  4  1  0  0  0  0
  4  5  1  0  0  0  0
  5  6  2  0  0  0  0
  6  7  1  0  0  0  0
  6  8  1  0  0  0  0
  4  9  1  0  0  0  0
  2  9  1  0  0  0  0
  9 10  1  0  0  0  0
 10 11  2  0  0  0  0
 10 12  1  0  0  0  0
 12 13  1  0  0  0  0
 13 14  1  0  0  0  0
 14 15  3  0  0  0  0
 13 16  1  0  0  0  0
 16 17  4  0  0  0  0
 17 18  4  0  0  0  0
 18 19  4  0  0  0  0
 19 20  1  0  0  0  0
 19 21  4  0  0  0  0
 21 22  1  0  0  0  0
 22 23  1  0  0  0  0
 23 24  4  0  0  0  0
 24 25  4  0  0  0  0
 25 26  4  0  0  0  0
 26 27  4  0  0  0  0
 27 28  4  0  0  0  0
 23 28  4  0  0  0  0
 21 29  4  0  0  0  0
 16 29  4  0  0  0  0
M  END
> <activity>
48.1

> <InChiKey>
QQODLKZGRKWIFG-UHFFFAOYSA-N

$$$$

  Mrv2220 08292413132D          

 26 27  0  0  0  0            999 V2000
   -5.0013   -7.0125    0.0000 C   0  0  0  0  0  0  0  0  0  0  0  0
   -4.2868   -6.6000    0.0000 C   0  0  0  0  0  0  0  0  0  0  0  0
   -3.5724   -7.0125    0.0000 C   0  0  0  0  0  0  0  0  0  0  0  0
   -2.8579   -6.6000    0.0000 C   0  0  0  0  0  0  0  0  0  0  0  0
   -2.1434   -7.0125    0.0000 O   0  0  0  0  0  0  0  0  0  0  0  0
   -1.4289   -6.6000    0.0000 C   0  0  0  0  0  0  0  0  0  0  0  0
   -1.4289   -5.7750    0.0000 O   0  0  0  0  0  0  0  0  0  0  0  0
   -0.7145   -7.0125    0.0000 C   0  0  0  0  0  0  0  0  0  0  0  0
   -0.7145   -7.8375    0.0000 C   0  0  0  0  0  0  0  0  0  0  0  0
    0.0000   -6.6000    0.0000 O   0  0  0  0  0  0  0  0  0  0  0  0
    0.7145   -7.0125    0.0000 C   0  0  0  0  0  0  0  0  0  0  0  0
    1.4289   -6.6000    0.0000 C   0  0  0  0  0  0  0  0  0  0  0  0
    2.1434   -7.0125    0.0000 C   0  0  0  0  0  0  0  0  0  0  0  0
    2.1434   -7.8375    0.0000 C   0  0  0  0  0  0  0  0  0  0  0  0
    2.8579   -8.2500    0.0000 O   0  0  0  0  0  0  0  0  0  0  0  0
    3.5724   -7.8375    0.0000 C   0  0  0  0  0  0  0  0  0  0  0  0
    3.5724   -7.0125    0.0000 C   0  0  0  0  0  0  0  0  0  0  0  0
    4.2868   -6.6000    0.0000 C   0  0  0  0  0  0  0  0  0  0  0  0
    5.0013   -7.0125    0.0000 C   0  0  0  0  0  0  0  0  0  0  0  0
    5.7158   -6.6000    0.0000 C   0  0  0  0  0  0  0  0  0  0  0  0
    6.4302   -6.1875    0.0000 N   0  0  0  0  0  0  0  0  0  0  0  0
    5.0013   -7.8375    0.0000 C   0  0  0  0  0  0  0  0  0  0  0  0
    4.2868   -8.2500    0.0000 C   0  0  0  0  0  0  0  0  0  0  0  0
    4.2868   -9.0750    0.0000 F   0  0  0  0  0  0  0  0  0  0  0  0
    1.4289   -8.2500    0.0000 C   0  0  0  0  0  0  0  0  0  0  0  0
    0.7145   -7.8375    0.0000 C   0  0  0  0  0  0  0  0  0  0  0  0
  1  2  1  0  0  0  0
  2  3  1  0  0  0  0
  3  4  1  0  0  0  0
  4  5  1  0  0  0  0
  5  6  1  0  0  0  0
  6  7  2  0  0  0  0
  6  8  1  0  0  0  0
  8  9  1  0  0  0  0
  8 10  1  0  0  0  0
 10 11  1  0  0  0  0
 11 12  4  0  0  0  0
 12 13  4  0  0  0  0
 13 14  4  0  0  0  0
 14 15  1  0  0  0  0
 15 16  1  0  0  0  0
 16 17  4  0  0  0  0
 17 18  4  0  0  0  0
 18 19  4  0  0  0  0
 19 20  1  0  0  0  0
 20 21  3  0  0  0  0
 19 22  4  0  0  0  0
 22 23  4  0  0  0  0
 16 23  4  0  0  0  0
 23 24  1  0  0  0  0
 14 25  4  0  0  0  0
 25 26  4  0  0  0  0
 11 26  4  0  0  0  0
M  END
> <activity>
51.1

> <InChiKey>
TYIYMOAHACZAMQ-UHFFFAOYSA-N

$$$$

  Mrv2220 08292413132D          

 17 19  0  0  0  0            999 V2000
    3.5724   -1.2375    0.0000 C   0  0  0  0  0  0  0  0  0  0  0  0
    2.8579   -1.6500    0.0000 C   0  0  0  0  0  0  0  0  0  0  0  0
    2.8579   -2.4750    0.0000 C   0  0  0  0  0  0  0  0  0  0  0  0
    2.1434   -2.8875    0.0000 C   0  0  0  0  0  0  0  0  0  0  0  0
    2.1434   -3.7125    0.0000 C   0  0  0  0  0  0  0  0  0  0  0  0
    2.5559   -4.4270    0.0000 C   0  0  0  0  0  0  0  0  0  0  0  0
    1.7309   -4.4270    0.0000 C   0  0  0  0  0  0  0  0  0  0  0  0
    1.4289   -2.4750    0.0000 N   0  0  0  0  0  0  0  0  0  0  0  0
    1.4289   -1.6500    0.0000 C   0  0  0  0  0  0  0  0  0  0  0  0
    0.7145   -1.2375    0.0000 N   0  0  0  0  0  0  0  0  0  0  0  0
    0.7145   -0.4125    0.0000 C   0  0  0  0  0  0  0  0  0  0  0  0
    0.0000    0.0000    0.0000 C   0  0  0  0  0  0  0  0  0  0  0  0
    0.0000    0.8250    0.0000 C   0  0  0  0  0  0  0  0  0  0  0  0
    0.7145    1.2375    0.0000 C   0  0  0  0  0  0  0  0  0  0  0  0
    1.4289    0.8250    0.0000 C   0  0  0  0  0  0  0  0  0  0  0  0
    1.4289    0.0000    0.0000 C   0  0  0  0  0  0  0  0  0  0  0  0
    2.1434   -1.2375    0.0000 N   0  0  0  0  0  0  0  0  0  0  0  0
  1  2  1  0  0  0  0
  2  3  4  0  0  0  0
  3  4  4  0  0  0  0
  4  5  1  0  0  0  0
  5  6  1  0  0  0  0
  6  7  1  0  0  0  0
  5  7  1  0  0  0  0
  4  8  4  0  0  0  0
  8  9  4  0  0  0  0
  9 10  1  0  0  0  0
 10 11  1  0  0  0  0
 11 12  4  0  0  0  0
 12 13  4  0  0  0  0
 13 14  4  0  0  0  0
 14 15  4  0  0  0  0
 15 16  4  0  0  0  0
 11 16  4  0  0  0  0
  9 17  4  0  0  0  0
  2 17  4  0  0  0  0
M  END
> <activity>
91.0

> <InChiKey>
HAORKNGNJCEJBX-UHFFFAOYSA-N

$$$$

  Mrv2220 08292413132D          

 12 13  0  0  0  0            999 V2000
    0.4125    1.8882    0.0000 N   0  0  0  0  0  0  0  0  0  0  0  0
    1.1270    2.3007    0.0000 C   0  0  0  0  0  0  0  0  0  0  0  0
    1.1270    3.1257    0.0000 N   0  0  0  0  0  0  0  0  0  0  0  0
    1.8414    3.5382    0.0000 C   0  0  0  0  0  0  0  0  0  0  0  0
    1.8414    4.3632    0.0000 N   0  0  0  0  0  0  0  0  0  0  0  0
    2.5559    3.1257    0.0000 N   0  0  0  0  0  0  0  0  0  0  0  0
    2.5559    2.3007    0.0000 C   0  0  0  0  0  0  0  0  0  0  0  0
    3.2704    1.8882    0.0000 N   0  0  0  0  0  0  0  0  0  0  0  0
    3.2704    1.0632    0.0000 C   0  0  0  0  0  0  0  0  0  0  0  0
    3.6829    0.3487    0.0000 C   0  0  0  0  0  0  0  0  0  0  0  0
    2.8579    0.3487    0.0000 C   0  0  0  0  0  0  0  0  0  0  0  0
    1.8414    1.8882    0.0000 N   0  0  0  0  0  0  0  0  0  0  0  0
  1  2  1  0  0  0  0
  2  3  4  0  0  0  0
  3  4  4  0  0  0  0
  4  5  1  0  0  0  0
  4  6  4  0  0  0  0
  6  7  4  0  0  0  0
  7  8  1  0  0  0  0
  8  9  1  0  0  0  0
  9 10  1  0  0  0  0
 10 11  1  0  0  0  0
  9 11  1  0  0  0  0
  7 12  4  0  0  0  0
  2 12  4  0  0  0  0
M  END
> <activity>
24.2

> <InChiKey>
LVQDKIWDGQRHTE-UHFFFAOYSA-N

$$$$

  Mrv2220 08292413132D          

 17 18  0  0  0  0            999 V2000
    0.7145    6.7661    0.0000 N   0  0  0  0  0  0  0  0  0  0  0  0
    0.7145    5.9411    0.0000 C   0  0  0  0  0  0  0  0  0  0  0  0
    1.4289    5.5286    0.0000 C   0  0  0  0  0  0  0  0  0  0  0  0
    1.4289    4.7036    0.0000 C   0  0  0  0  0  0  0  0  0  0  0  0
    0.7145    4.2911    0.0000 N   0  0  0  0  0  0  0  0  0  0  0  0
    0.7145    3.4661    0.0000 C   0  0  0  0  0  0  0  0  0  0  0  0
    1.3819    2.9812    0.0000 O   0  0  0  0  0  0  0  0  0  0  0  0
    1.1270    2.1965    0.0000 C   0  0  0  0  0  0  0  0  0  0  0  0
    1.6119    1.5291    0.0000 C   0  0  0  0  0  0  0  0  0  0  0  0
    2.4324    1.6153    0.0000 O   0  0  0  0  0  0  0  0  0  0  0  0
    0.3020    2.1965    0.0000 C   0  0  0  0  0  0  0  0  0  0  0  0
   -0.1830    1.5291    0.0000 O   0  0  0  0  0  0  0  0  0  0  0  0
    0.0470    2.9812    0.0000 C   0  0  0  0  0  0  0  0  0  0  0  0
   -0.7376    3.2361    0.0000 O   0  0  0  0  0  0  0  0  0  0  0  0
    0.0000    4.7036    0.0000 C   0  0  0  0  0  0  0  0  0  0  0  0
   -0.7145    4.2911    0.0000 O   0  0  0  0  0  0  0  0  0  0  0  0
    0.0000    5.5286    0.0000 N   0  0  0  0  0  0  0  0  0  0  0  0
  1  2  1  0  0  0  0
  2  3  4  0  0  0  0
  3  4  4  0  0  0  0
  4  5  4  0  0  0  0
  5  6  1  0  0  0  0
  6  7  1  0  0  0  0
  7  8  1  0  0  0  0
  8  9  1  0  0  0  0
  9 10  1  0  0  0  0
  8 11  1  0  0  0  0
 11 12  1  0  0  0  0
 11 13  1  0  0  0  0
  6 13  1  0  0  0  0
 13 14  1  0  0  0  0
  5 15  4  0  0  0  0
 15 16  2  0  0  0  0
 15 17  4  0  0  0  0
  2 17  4  0  0  0  0
M  END
> <activity>
8.7

> <InChiKey>
UHDGCWIWMRVCDJ-UHFFFAOYSA-N

$$$$

  Mrv2220 08292413132D          

 17 18  0  0  0  0            999 V2000
    0.7145   -1.2375    0.0000 N   0  0  0  0  0  0  0  0  0  0  0  0
    0.7145   -2.0625    0.0000 C   0  0  0  0  0  0  0  0  0  0  0  0
    1.4289   -2.4750    0.0000 C   0  0  0  0  0  0  0  0  0  0  0  0
    1.4289   -3.3000    0.0000 C   0  0  0  0  0  0  0  0  0  0  0  0
    0.7145   -3.7125    0.0000 C   0  0  0  0  0  0  0  0  0  0  0  0
    0.7145   -4.5375    0.0000 S   0  0  0  0  0  0  0  0  0  0  0  0
   -0.1105   -4.5375    0.0000 O   0  0  0  0  0  0  0  0  0  0  0  0
    1.5395   -4.5375    0.0000 O   0  0  0  0  0  0  0  0  0  0  0  0
    0.7145   -5.3625    0.0000 C   0  0  0  0  0  0  0  0  0  0  0  0
    1.4289   -5.7750    0.0000 C   0  0  0  0  0  0  0  0  0  0  0  0
    1.4289   -6.6000    0.0000 C   0  0  0  0  0  0  0  0  0  0  0  0
    0.7145   -7.0125    0.0000 C   0  0  0  0  0  0  0  0  0  0  0  0
    0.7145   -7.8375    0.0000 N   0  0  0  0  0  0  0  0  0  0  0  0
   -0.0000   -6.6000    0.0000 C   0  0  0  0  0  0  0  0  0  0  0  0
   -0.0000   -5.7750    0.0000 C   0  0  0  0  0  0  0  0  0  0  0  0
    0.0000   -3.3000    0.0000 C   0  0  0  0  0  0  0  0  0  0  0  0
    0.0000   -2.4750    0.0000 C   0  0  0  0  0  0  0  0  0  0  0  0
  1  2  1  0  0  0  0
  2  3  4  0  0  0  0
  3  4  4  0  0  0  0
  4  5  4  0  0  0  0
  5  6  1  0  0  0  0
  6  7  2  0  0  0  0
  6  8  2  0  0  0  0
  6  9  1  0  0  0  0
  9 10  4  0  0  0  0
 10 11  4  0  0  0  0
 11 12  4  0  0  0  0
 12 13  1  0  0  0  0
 12 14  4  0  0  0  0
 14 15  4  0  0  0  0
  9 15  4  0  0  0  0
  5 16  4  0  0  0  0
 16 17  4  0  0  0  0
  2 17  4  0  0  0  0
M  END
> <activity>
25.0

> <InChiKey>
MQJKPEGWNLWLTK-UHFFFAOYSA-N

$$$$

  Mrv2220 08292413132D          

 19 20  0  0  0  0            999 V2000
    2.1434   -0.4125    0.0000 Cl  0  0  0  0  0  0  0  0  0  0  0  0
    2.1434   -1.2375    0.0000 C   0  0  0  0  0  0  0  0  0  0  0  0
    2.8579   -1.6500    0.0000 C   0  0  0  0  0  0  0  0  0  0  0  0
    2.8579   -2.4750    0.0000 C   0  0  0  0  0  0  0  0  0  0  0  0
    2.1434   -2.8875    0.0000 C   0  0  0  0  0  0  0  0  0  0  0  0
    2.1434   -3.7125    0.0000 C   0  0  0  0  0  0  0  0  0  0  0  0
    1.4289   -4.1250    0.0000 C   0  0  0  0  0  0  0  0  0  0  0  0
    1.4289   -4.9500    0.0000 C   0  0  0  0  0  0  0  0  0  0  0  0
    0.7145   -5.3625    0.0000 C   0  0  0  0  0  0  0  0  0  0  0  0
   -0.0000   -4.9500    0.0000 C   0  0  0  0  0  0  0  0  0  0  0  0
   -0.7145   -5.3625    0.0000 Cl  0  0  0  0  0  0  0  0  0  0  0  0
    0.0000   -4.1250    0.0000 C   0  0  0  0  0  0  0  0  0  0  0  0
    0.7145   -3.7125    0.0000 C   0  0  0  0  0  0  0  0  0  0  0  0
    2.8579   -4.1250    0.0000 C   0  0  0  0  0  0  0  0  0  0  0  0
    3.5724   -4.5375    0.0000 Cl  0  0  0  0  0  0  0  0  0  0  0  0
    2.4454   -4.8395    0.0000 Cl  0  0  0  0  0  0  0  0  0  0  0  0
    3.2704   -3.4105    0.0000 Cl  0  0  0  0  0  0  0  0  0  0  0  0
    1.4289   -2.4750    0.0000 C   0  0  0  0  0  0  0  0  0  0  0  0
    1.4289   -1.6500    0.0000 C   0  0  0  0  0  0  0  0  0  0  0  0
  1  2  1  0  0  0  0
  2  3  4  0  0  0  0
  3  4  4  0  0  0  0
  4  5  4  0  0  0  0
  5  6  1  0  0  0  0
  6  7  1  0  0  0  0
  7  8  4  0  0  0  0
  8  9  4  0  0  0  0
  9 10  4  0  0  0  0
 10 11  1  0  0  0  0
 10 12  4  0  0  0  0
 12 13  4  0  0  0  0
  7 13  4  0  0  0  0
  6 14  1  0  0  0  0
 14 15  1  0  0  0  0
 14 16  1  0  0  0  0
 14 17  1  0  0  0  0
  5 18  4  0  0  0  0
 18 19  4  0  0  0  0
  2 19  4  0  0  0  0
M  END
> <activity>
14.9

> <InChiKey>
YVGGHNCTFXOJCH-UHFFFAOYSA-N

$$$$

  Mrv2220 08292413132D          

 11 10  0  0  0  0            999 V2000
    4.2355    3.2704    0.0000 C   0  0  0  0  0  0  0  0  0  0  0  0
    4.9500    2.8579    0.0000 C   0  0  0  0  0  0  0  0  0  0  0  0
    5.6645    3.2704    0.0000 C   0  0  0  0  0  0  0  0  0  0  0  0
    6.3789    2.8579    0.0000 C   0  0  0  0  0  0  0  0  0  0  0  0
    7.0934    3.2704    0.0000 C   0  0  0  0  0  0  0  0  0  0  0  0
    7.8079    2.8579    0.0000 C   0  0  0  0  0  0  0  0  0  0  0  0
    8.5224    3.2704    0.0000 C   0  0  0  0  0  0  0  0  0  0  0  0
    9.2368    2.8579    0.0000 C   0  0  0  0  0  0  0  0  0  0  0  0
    9.9513    3.2704    0.0000 C   0  0  0  0  0  0  0  0  0  0  0  0
   10.6658    2.8579    0.0000 C   0  0  0  0  0  0  0  0  0  0  0  0
   11.3802    3.2704    0.0000 O   0  0  0  0  0  0  0  0  0  0  0  0
  1  2  1  0  0  0  0
  2  3  1  0  0  0  0
  3  4  1  0  0  0  0
  4  5  1  0  0  0  0
  5  6  1  0  0  0  0
  6  7  1  0  0  0  0
  7  8  1  0  0  0  0
  8  9  1  0  0  0  0
  9 10  1  0  0  0  0
 10 11  2  0  0  0  0
M  END
> <activity>
94.7

> <InChiKey>
KSMVZQYAVGTKIV-UHFFFAOYSA-N

$$$$

  Mrv2220 08292413132D          

 14 13  0  0  0  0            999 V2000
    3.5211    2.8579    0.0000 O   0  0  0  0  0  0  0  0  0  0  0  0
    4.2355    3.2704    0.0000 C   0  0  0  0  0  0  0  0  0  0  0  0
    4.2355    4.0954    0.0000 O   0  0  0  0  0  0  0  0  0  0  0  0
    4.9500    2.8579    0.0000 C   0  0  0  0  0  0  0  0  0  0  0  0
    5.6645    3.2704    0.0000 C   0  0  0  0  0  0  0  0  0  0  0  0
    6.3789    2.8579    0.0000 C   0  0  0  0  0  0  0  0  0  0  0  0
    7.0934    3.2704    0.0000 C   0  0  0  0  0  0  0  0  0  0  0  0
    7.8079    2.8579    0.0000 C   0  0  0  0  0  0  0  0  0  0  0  0
    8.5224    3.2704    0.0000 C   0  0  0  0  0  0  0  0  0  0  0  0
    9.2368    2.8579    0.0000 C   0  0  0  0  0  0  0  0  0  0  0  0
    9.9513    3.2704    0.0000 C   0  0  0  0  0  0  0  0  0  0  0  0
   10.6658    2.8579    0.0000 C   0  0  0  0  0  0  0  0  0  0  0  0
   11.3802    3.2704    0.0000 O   0  0  0  0  0  0  0  0  0  0  0  0
   10.6658    2.0329    0.0000 O   0  0  0  0  0  0  0  0  0  0  0  0
  1  2  2  0  0  0  0
  2  3  1  0  0  0  0
  2  4  1  0  0  0  0
  4  5  1  0  0  0  0
  5  6  1  0  0  0  0
  6  7  1  0  0  0  0
  7  8  1  0  0  0  0
  8  9  1  0  0  0  0
  9 10  1  0  0  0  0
 10 11  1  0  0  0  0
 11 12  1  0  0  0  0
 12 13  2  0  0  0  0
 12 14  1  0  0  0  0
M  END
> <activity>
39.5

> <InChiKey>
CXMXRPHRNRROMY-UHFFFAOYSA-N

$$$$

  Mrv2220 08292413132D          

 12 11  0  0  0  0            999 V2000
    4.2355    3.2704    0.0000 C   0  0  0  0  0  0  0  0  0  0  0  0
    4.9500    2.8579    0.0000 C   0  0  0  0  0  0  0  0  0  0  0  0
    5.6645    3.2704    0.0000 C   0  0  0  0  0  0  0  0  0  0  0  0
    6.3789    2.8579    0.0000 C   0  0  0  0  0  0  0  0  0  0  0  0
    7.0934    3.2704    0.0000 C   0  0  0  0  0  0  0  0  0  0  0  0
    7.8079    2.8579    0.0000 C   0  0  0  0  0  0  0  0  0  0  0  0
    8.5224    3.2704    0.0000 C   0  0  0  0  0  0  0  0  0  0  0  0
    9.2368    2.8579    0.0000 C   0  0  0  0  0  0  0  0  0  0  0  0
    9.9513    3.2704    0.0000 C   0  0  0  0  0  0  0  0  0  0  0  0
   10.6658    2.8579    0.0000 C   0  0  0  0  0  0  0  0  0  0  0  0
   11.3802    3.2704    0.0000 O   0  0  0  0  0  0  0  0  0  0  0  0
   10.6658    2.0329    0.0000 O   0  0  0  0  0  0  0  0  0  0  0  0
  1  2  1  0  0  0  0
  2  3  1  0  0  0  0
  3  4  1  0  0  0  0
  4  5  1  0  0  0  0
  5  6  1  0  0  0  0
  6  7  1  0  0  0  0
  7  8  1  0  0  0  0
  8  9  1  0  0  0  0
  9 10  1  0  0  0  0
 10 11  2  0  0  0  0
 10 12  1  0  0  0  0
M  END
> <activity>
93.7

> <InChiKey>
GHVNFZFCNZKVNT-UHFFFAOYSA-N

$$$$

  Mrv2220 08292413132D          

 14 14  0  0  0  0            999 V2000
   -0.7145    3.7125    0.0000 C   0  0  0  0  0  0  0  0  0  0  0  0
    0.0000    3.3000    0.0000 C   0  0  0  0  0  0  0  0  0  0  0  0
    0.0000    2.4750    0.0000 N   0  0  0  0  0  0  0  0  0  0  0  0
   -0.7145    2.0625    0.0000 C   0  0  0  0  0  0  0  0  0  0  0  0
   -0.7145    1.2375    0.0000 C   0  0  0  0  0  0  0  0  0  0  0  0
    0.7145    2.0625    0.0000 C   0  0  0  0  0  0  0  0  0  0  0  0
    1.4289    2.4750    0.0000 O   0  0  0  0  0  0  0  0  0  0  0  0
    0.7145    1.2375    0.0000 C   0  0  0  0  0  0  0  0  0  0  0  0
    1.4289    0.8250    0.0000 C   0  0  0  0  0  0  0  0  0  0  0  0
    1.4289   -0.0000    0.0000 C   0  0  0  0  0  0  0  0  0  0  0  0
    0.7145   -0.4125    0.0000 C   0  0  0  0  0  0  0  0  0  0  0  0
    0.0000    0.0000    0.0000 C   0  0  0  0  0  0  0  0  0  0  0  0
   -0.7145   -0.4125    0.0000 C   0  0  0  0  0  0  0  0  0  0  0  0
    0.0000    0.8250    0.0000 C   0  0  0  0  0  0  0  0  0  0  0  0
  1  2  1  0  0  0  0
  2  3  1  0  0  0  0
  3  4  1  0  0  0  0
  4  5  1  0  0  0  0
  3  6  1  0  0  0  0
  6  7  2  0  0  0  0
  6  8  1  0  0  0  0
  8  9  4  0  0  0  0
  9 10  4  0  0  0  0
 10 11  4  0  0  0  0
 11 12  4  0  0  0  0
 12 13  1  0  0  0  0
 12 14  4  0  0  0  0
  8 14  4  0  0  0  0
M  END
> <activity>
51.8

> <InChiKey>
MMOXZBCLCQITDF-UHFFFAOYSA-N

$$$$

  Mrv2220 08292413132D          

 12 12  0  0  0  0            999 V2000
    0.0000    2.4750    0.0000 C   0  0  0  0  0  0  0  0  0  0  0  0
    0.7145    2.0625    0.0000 C   0  0  0  0  0  0  0  0  0  0  0  0
    1.4289    2.4750    0.0000 O   0  0  0  0  0  0  0  0  0  0  0  0
    0.7145    1.2375    0.0000 C   0  0  0  0  0  0  0  0  0  0  0  0
    1.4289    0.8250    0.0000 C   0  0  0  0  0  0  0  0  0  0  0  0
    2.1434    1.2375    0.0000 O   0  0  0  0  0  0  0  0  0  0  0  0
    1.4289   -0.0000    0.0000 C   0  0  0  0  0  0  0  0  0  0  0  0
    0.7145   -0.4125    0.0000 C   0  0  0  0  0  0  0  0  0  0  0  0
    0.7145   -1.2375    0.0000 C   0  0  0  0  0  0  0  0  0  0  0  0
    0.0000    0.0000    0.0000 O   0  0  0  0  0  0  0  0  0  0  0  0
    0.0000    0.8250    0.0000 C   0  0  0  0  0  0  0  0  0  0  0  0
   -0.7145    1.2375    0.0000 O   0  0  0  0  0  0  0  0  0  0  0  0
  1  2  1  0  0  0  0
  2  3  2  0  0  0  0
  2  4  1  0  0  0  0
  4  5  1  0  0  0  0
  5  6  2  0  0  0  0
  5  7  1  0  0  0  0
  7  8  2  0  0  0  0
  8  9  1  0  0  0  0
  8 10  1  0  0  0  0
 10 11  1  0  0  0  0
  4 11  1  0  0  0  0
 11 12  2  0  0  0  0
M  END
> <activity>
41.0

> <InChiKey>
PGRHXDWITVMQBC-UHFFFAOYSA-N

$$$$

  Mrv2220 08292413132D          

 21 24  0  0  0  0            999 V2000
    3.5330   -3.2587    0.0000 C   0  0  0  0  0  0  0  0  0  0  0  0
    3.8928   -2.5163    0.0000 C   0  0  0  0  0  0  0  0  0  0  0  0
    4.4247   -3.1470    0.0000 C   0  0  0  0  0  0  0  0  0  0  0  0
    5.2368   -3.0018    0.0000 C   0  0  0  0  0  0  0  0  0  0  0  0
    5.5171   -2.2259    0.0000 C   0  0  0  0  0  0  0  0  0  0  0  0
    4.9853   -1.5952    0.0000 C   0  0  0  0  0  0  0  0  0  0  0  0
    5.2655   -0.8192    0.0000 C   0  0  0  0  0  0  0  0  0  0  0  0
    6.0777   -0.6740    0.0000 C   0  0  0  0  0  0  0  0  0  0  0  0
    6.6095   -1.3047    0.0000 C   0  0  0  0  0  0  0  0  0  0  0  0
    7.4216   -1.1595    0.0000 C   0  0  0  0  0  0  0  0  0  0  0  0
    7.9534   -1.7902    0.0000 C   0  0  0  0  0  0  0  0  0  0  0  0
    8.7655   -1.6450    0.0000 O   0  0  0  0  0  0  0  0  0  0  0  0
    7.6731   -2.5662    0.0000 C   0  0  0  0  0  0  0  0  0  0  0  0
    6.8610   -2.7114    0.0000 C   0  0  0  0  0  0  0  0  0  0  0  0
    6.3292   -2.0807    0.0000 C   0  0  0  0  0  0  0  0  0  0  0  0
    6.0489   -2.8566    0.0000 C   0  0  0  0  0  0  0  0  0  0  0  0
    4.1731   -1.7404    0.0000 C   0  0  0  0  0  0  0  0  0  0  0  0
    3.5218   -1.2340    0.0000 C   0  0  0  0  0  0  0  0  0  0  0  0
    2.8390   -1.6970    0.0000 C   0  0  0  0  0  0  0  0  0  0  0  0
    3.0683   -2.4895    0.0000 C   0  0  0  0  0  0  0  0  0  0  0  0
    2.5619   -3.1408    0.0000 O   0  0  0  0  0  0  0  0  0  0  0  0
  1  2  1  0  0  0  0
  2  3  1  0  0  0  0
  3  4  1  0  0  0  0
  4  5  1  0  0  0  0
  5  6  1  0  0  0  0
  6  7  1  0  0  0  0
  7  8  1  0  0  0  0
  8  9  2  0  0  0  0
  9 10  1  0  0  0  0
 10 11  1  0  0  0  0
 11 12  1  0  0  0  0
 11 13  1  0  0  0  0
 13 14  1  0  0  0  0
 14 15  1  0  0  0  0
  9 15  1  0  0  0  0
  5 15  1  0  0  0  0
 15 16  1  0  0  0  0
  6 17  1  0  0  0  0
  2 17  1  0  0  0  0
 17 18  1  0  0  0  0
 18 19  1  0  0  0  0
 19 20  1  0  0  0  0
  2 20  1  0  0  0  0
 20 21  2  0  0  0  0
M  END
> <activity>
37.5

> <InChiKey>
FMGSKLZLMKYGDP-UHFFFAOYSA-N

$$$$

  Mrv2220 08292413132D          

 11 11  0  0  0  0            999 V2000
    0.0000    3.3000    0.0000 C   0  0  0  0  0  0  0  0  0  0  0  0
    0.0000    2.4750    0.0000 C   0  0  0  0  0  0  0  0  0  0  0  0
    0.7145    2.0625    0.0000 N   0  0  0  0  0  0  0  0  0  0  0  0
    0.7145    1.2375    0.0000 C   0  0  0  0  0  0  0  0  0  0  0  0
    1.4289    0.8250    0.0000 N   0  0  0  0  0  0  0  0  0  0  0  0
    1.4289   -0.0000    0.0000 C   0  0  0  0  0  0  0  0  0  0  0  0
    2.1434   -0.4125    0.0000 N   0  0  0  0  0  0  0  0  0  0  0  0
    0.7145   -0.4125    0.0000 N   0  0  0  0  0  0  0  0  0  0  0  0
    0.0000    0.0000    0.0000 C   0  0  0  0  0  0  0  0  0  0  0  0
   -0.7145   -0.4125    0.0000 Cl  0  0  0  0  0  0  0  0  0  0  0  0
    0.0000    0.8250    0.0000 N   0  0  0  0  0  0  0  0  0  0  0  0
  1  2  1  0  0  0  0
  2  3  1  0  0  0  0
  3  4  1  0  0  0  0
  4  5  4  0  0  0  0
  5  6  4  0  0  0  0
  6  7  1  0  0  0  0
  6  8  4  0  0  0  0
  8  9  4  0  0  0  0
  9 10  1  0  0  0  0
  9 11  4  0  0  0  0
  4 11  4  0  0  0  0
M  END
> <activity>
20.2

> <InChiKey>
IVENSCMCQBJAKW-UHFFFAOYSA-N

$$$$

  Mrv2220 08292413132D          

 32 35  0  0  0  0            999 V2000
    2.0630   -1.4167    0.0000 C   0  0  0  0  0  0  0  0  0  0  0  0
    2.8390   -1.6970    0.0000 C   0  0  0  0  0  0  0  0  0  0  0  0
    3.5218   -1.2340    0.0000 C   0  0  0  0  0  0  0  0  0  0  0  0
    4.1731   -1.7404    0.0000 C   0  0  0  0  0  0  0  0  0  0  0  0
    4.9853   -1.5952    0.0000 C   0  0  0  0  0  0  0  0  0  0  0  0
    5.2655   -0.8192    0.0000 C   0  0  0  0  0  0  0  0  0  0  0  0
    6.0777   -0.6740    0.0000 C   0  0  0  0  0  0  0  0  0  0  0  0
    6.6095   -1.3047    0.0000 C   0  0  0  0  0  0  0  0  0  0  0  0
    7.4216   -1.1595    0.0000 C   0  0  0  0  0  0  0  0  0  0  0  0
    7.9534   -1.7902    0.0000 C   0  0  0  0  0  0  0  0  0  0  0  0
    8.7655   -1.6450    0.0000 O   0  0  0  0  0  0  0  0  0  0  0  0
    7.6731   -2.5662    0.0000 C   0  0  0  0  0  0  0  0  0  0  0  0
    6.8610   -2.7114    0.0000 C   0  0  0  0  0  0  0  0  0  0  0  0
    6.3292   -2.0807    0.0000 C   0  0  0  0  0  0  0  0  0  0  0  0
    6.0489   -2.8566    0.0000 C   0  0  0  0  0  0  0  0  0  0  0  0
    5.5171   -2.2259    0.0000 C   0  0  0  0  0  0  0  0  0  0  0  0
    5.5766   -3.0487    0.0000 F   0  0  0  0  0  0  0  0  0  0  0  0
    5.2368   -3.0018    0.0000 C   0  0  0  0  0  0  0  0  0  0  0  0
    5.7686   -3.6325    0.0000 O   0  0  0  0  0  0  0  0  0  0  0  0
    4.4247   -3.1470    0.0000 C   0  0  0  0  0  0  0  0  0  0  0  0
    3.8928   -2.5163    0.0000 C   0  0  0  0  0  0  0  0  0  0  0  0
    3.5330   -3.2587    0.0000 C   0  0  0  0  0  0  0  0  0  0  0  0
    3.0683   -2.4895    0.0000 C   0  0  0  0  0  0  0  0  0  0  0  0
    2.9469   -3.3055    0.0000 O   0  0  0  0  0  0  0  0  0  0  0  0
    2.3074   -2.8084    0.0000 C   0  0  0  0  0  0  0  0  0  0  0  0
    2.2031   -3.6268    0.0000 O   0  0  0  0  0  0  0  0  0  0  0  0
    1.6508   -2.3089    0.0000 C   0  0  0  0  0  0  0  0  0  0  0  0
    0.8899   -2.6277    0.0000 O   0  0  0  0  0  0  0  0  0  0  0  0
    0.7856   -3.4461    0.0000 P   0  0  0  0  0  0  0  0  0  0  0  0
    0.6813   -4.2645    0.0000 O   0  0  0  0  0  0  0  0  0  0  0  0
   -0.0328   -3.3418    0.0000 O   0  0  0  0  0  0  0  0  0  0  0  0
    1.6040   -3.5504    0.0000 O   0  0  0  0  0  0  0  0  0  0  0  0
  1  2  1  0  0  0  0
  2  3  1  0  0  0  0
  3  4  1  0  0  0  0
  4  5  1  0  0  0  0
  5  6  1  0  0  0  0
  6  7  1  0  0  0  0
  7  8  1  0  0  0  0
  8  9  2  0  0  0  0
  9 10  1  0  0  0  0
 10 11  2  0  0  0  0
 10 12  1  0  0  0  0
 12 13  2  0  0  0  0
 13 14  1  0  0  0  0
  8 14  1  0  0  0  0
 14 15  1  0  0  0  0
 14 16  1  0  0  0  0
  5 16  1  0  0  0  0
 16 17  1  0  0  0  0
 16 18  1  0  0  0  0
 18 19  1  0  0  0  0
 18 20  1  0  0  0  0
 20 21  1  0  0  0  0
  4 21  1  0  0  0  0
 21 22  1  0  0  0  0
 21 23  1  0  0  0  0
  2 23  1  0  0  0  0
 23 24  1  0  0  0  0
 23 25  1  0  0  0  0
 25 26  2  0  0  0  0
 25 27  1  0  0  0  0
 27 28  1  0  0  0  0
 28 29  1  0  0  0  0
 29 30  2  0  0  0  0
 29 31  1  0  0  0  0
 29 32  1  0  0  0  0
M  END
> <activity>
7.1

> <InChiKey>
VQODGRNSFPNSQE-UHFFFAOYSA-N

$$$$

  Mrv2220 08292413132D          

 28 28  0  0  0  0            999 V2000
   -2.8579   -6.6000    0.0000 C   0  0  0  0  0  0  0  0  0  0  0  0
   -2.1434   -6.1875    0.0000 C   0  0  0  0  0  0  0  0  0  0  0  0
   -2.1434   -5.3625    0.0000 C   0  0  0  0  0  0  0  0  0  0  0  0
   -1.4289   -4.9500    0.0000 C   0  0  0  0  0  0  0  0  0  0  0  0
   -1.4289   -4.1250    0.0000 C   0  0  0  0  0  0  0  0  0  0  0  0
   -0.7145   -3.7125    0.0000 C   0  0  0  0  0  0  0  0  0  0  0  0
   -0.7145   -2.8875    0.0000 C   0  0  0  0  0  0  0  0  0  0  0  0
    0.0000   -2.4750    0.0000 C   0  0  0  0  0  0  0  0  0  0  0  0
    0.0000   -1.6500    0.0000 O   0  0  0  0  0  0  0  0  0  0  0  0
    0.7145   -1.2375    0.0000 C   0  0  0  0  0  0  0  0  0  0  0  0
    1.4289   -1.6500    0.0000 O   0  0  0  0  0  0  0  0  0  0  0  0
    0.7145   -0.4125    0.0000 C   0  0  0  0  0  0  0  0  0  0  0  0
    0.0000    0.0000    0.0000 C   0  0  0  0  0  0  0  0  0  0  0  0
    0.0000    0.8250    0.0000 C   0  0  0  0  0  0  0  0  0  0  0  0
    0.7145    1.2375    0.0000 C   0  0  0  0  0  0  0  0  0  0  0  0
    1.4289    0.8250    0.0000 C   0  0  0  0  0  0  0  0  0  0  0  0
    1.4289    0.0000    0.0000 C   0  0  0  0  0  0  0  0  0  0  0  0
    2.1434   -0.4125    0.0000 C   0  0  0  0  0  0  0  0  0  0  0  0
    2.1434   -1.2375    0.0000 O   0  0  0  0  0  0  0  0  0  0  0  0
    2.8579    0.0000    0.0000 O   0  0  0  0  0  0  0  0  0  0  0  0
    3.5724   -0.4125    0.0000 C   0  0  0  0  0  0  0  0  0  0  0  0
    4.2868    0.0000    0.0000 C   0  0  0  0  0  0  0  0  0  0  0  0
    5.0013   -0.4125    0.0000 C   0  0  0  0  0  0  0  0  0  0  0  0
    5.7158    0.0000    0.0000 C   0  0  0  0  0  0  0  0  0  0  0  0
    6.4302   -0.4125    0.0000 C   0  0  0  0  0  0  0  0  0  0  0  0
    7.1447    0.0000    0.0000 C   0  0  0  0  0  0  0  0  0  0  0  0
    7.8592   -0.4125    0.0000 C   0  0  0  0  0  0  0  0  0  0  0  0
    8.5737    0.0000    0.0000 C   0  0  0  0  0  0  0  0  0  0  0  0
  1  2  1  0  0  0  0
  2  3  1  0  0  0  0
  3  4  1  0  0  0  0
  4  5  1  0  0  0  0
  5  6  1  0  0  0  0
  6  7  1  0  0  0  0
  7  8  1  0  0  0  0
  8  9  1  0  0  0  0
  9 10  1  0  0  0  0
 10 11  2  0  0  0  0
 10 12  1  0  0  0  0
 12 13  4  0  0  0  0
 13 14  4  0  0  0  0
 14 15  4  0  0  0  0
 15 16  4  0  0  0  0
 16 17  4  0  0  0  0
 12 17  4  0  0  0  0
 17 18  1  0  0  0  0
 18 19  2  0  0  0  0
 18 20  1  0  0  0  0
 20 21  1  0  0  0  0
 21 22  1  0  0  0  0
 22 23  1  0  0  0  0
 23 24  1  0  0  0  0
 24 25  1  0  0  0  0
 25 26  1  0  0  0  0
 26 27  1  0  0  0  0
 27 28  1  0  0  0  0
M  END
> <activity>
15.1

> <InChiKey>
MQIUGAXCHLFZKX-UHFFFAOYSA-N

$$$$

  Mrv2220 08292413132D          

 10  9  0  0  0  0            999 V2000
    0.1105   -2.8875    0.0000 C   0  0  0  0  0  0  0  0  0  0  0  0
    0.1105   -2.0625    0.0000 C   0  0  0  0  0  0  0  0  0  0  0  0
    0.9355   -2.0625    0.0000 C   0  0  0  0  0  0  0  0  0  0  0  0
   -0.7145   -2.0625    0.0000 C   0  0  0  0  0  0  0  0  0  0  0  0
    0.1105   -1.2375    0.0000 O   0  0  0  0  0  0  0  0  0  0  0  0
    0.8250   -0.8250    0.0000 O   0  0  0  0  0  0  0  0  0  0  0  0
    0.8250    0.0000    0.0000 C   0  0  0  0  0  0  0  0  0  0  0  0
    0.8250    0.8250    0.0000 C   0  0  0  0  0  0  0  0  0  0  0  0
    1.6500   -0.0000    0.0000 C   0  0  0  0  0  0  0  0  0  0  0  0
    0.0000    0.0000    0.0000 C   0  0  0  0  0  0  0  0  0  0  0  0
  1  2  1  0  0  0  0
  2  3  1  0  0  0  0
  2  4  1  0  0  0  0
  2  5  1  0  0  0  0
  5  6  1  0  0  0  0
  6  7  1  0  0  0  0
  7  8  1  0  0  0  0
  7  9  1  0  0  0  0
  7 10  1  0  0  0  0
M  END
> <activity>
6.8

> <InChiKey>
LSXWFXONGKSEMY-UHFFFAOYSA-N

$$$$

  Mrv2220 08292413132D          

 28 28  0  0  0  0            999 V2000
   -2.1434   -5.3625    0.0000 C   0  0  0  0  0  0  0  0  0  0  0  0
   -1.4289   -4.9500    0.0000 C   0  0  0  0  0  0  0  0  0  0  0  0
   -1.4289   -4.1250    0.0000 C   0  0  0  0  0  0  0  0  0  0  0  0
   -0.7145   -3.7125    0.0000 C   0  0  0  0  0  0  0  0  0  0  0  0
   -0.7145   -2.8875    0.0000 C   0  0  0  0  0  0  0  0  0  0  0  0
   -1.4289   -2.4750    0.0000 C   0  0  0  0  0  0  0  0  0  0  0  0
   -1.4289   -1.6500    0.0000 C   0  0  0  0  0  0  0  0  0  0  0  0
    0.0000   -2.4750    0.0000 C   0  0  0  0  0  0  0  0  0  0  0  0
    0.0000   -1.6500    0.0000 O   0  0  0  0  0  0  0  0  0  0  0  0
    0.7145   -1.2375    0.0000 C   0  0  0  0  0  0  0  0  0  0  0  0
    1.4289   -1.6500    0.0000 O   0  0  0  0  0  0  0  0  0  0  0  0
    0.7145   -0.4125    0.0000 C   0  0  0  0  0  0  0  0  0  0  0  0
    0.0000    0.0000    0.0000 C   0  0  0  0  0  0  0  0  0  0  0  0
    0.0000    0.8250    0.0000 C   0  0  0  0  0  0  0  0  0  0  0  0
    0.7145    1.2375    0.0000 C   0  0  0  0  0  0  0  0  0  0  0  0
    1.4289    0.8250    0.0000 C   0  0  0  0  0  0  0  0  0  0  0  0
    1.4289    0.0000    0.0000 C   0  0  0  0  0  0  0  0  0  0  0  0
    2.1434   -0.4125    0.0000 C   0  0  0  0  0  0  0  0  0  0  0  0
    2.1434   -1.2375    0.0000 O   0  0  0  0  0  0  0  0  0  0  0  0
    2.8579    0.0000    0.0000 O   0  0  0  0  0  0  0  0  0  0  0  0
    3.5724   -0.4125    0.0000 C   0  0  0  0  0  0  0  0  0  0  0  0
    4.2868    0.0000    0.0000 C   0  0  0  0  0  0  0  0  0  0  0  0
    4.2868    0.8250    0.0000 C   0  0  0  0  0  0  0  0  0  0  0  0
    5.0013    1.2375    0.0000 C   0  0  0  0  0  0  0  0  0  0  0  0
    5.0013   -0.4125    0.0000 C   0  0  0  0  0  0  0  0  0  0  0  0
    5.7158    0.0000    0.0000 C   0  0  0  0  0  0  0  0  0  0  0  0
    6.4302   -0.4125    0.0000 C   0  0  0  0  0  0  0  0  0  0  0  0
    7.1447    0.0000    0.0000 C   0  0  0  0  0  0  0  0  0  0  0  0
  1  2  1  0  0  0  0
  2  3  1  0  0  0  0
  3  4  1  0  0  0  0
  4  5  1  0  0  0  0
  5  6  1  0  0  0  0
  6  7  1  0  0  0  0
  5  8  1  0  0  0  0
  8  9  1  0  0  0  0
  9 10  1  0  0  0  0
 10 11  2  0  0  0  0
 10 12  1  0  0  0  0
 12 13  4  0  0  0  0
 13 14  4  0  0  0  0
 14 15  4  0  0  0  0
 15 16  4  0  0  0  0
 16 17  4  0  0  0  0
 12 17  4  0  0  0  0
 17 18  1  0  0  0  0
 18 19  2  0  0  0  0
 18 20  1  0  0  0  0
 20 21  1  0  0  0  0
 21 22  1  0  0  0  0
 22 23  1  0  0  0  0
 23 24  1  0  0  0  0
 22 25  1  0  0  0  0
 25 26  1  0  0  0  0
 26 27  1  0  0  0  0
 27 28  1  0  0  0  0
M  END
> <activity>
5.6

> <InChiKey>
BJQHLKABXJIVAM-UHFFFAOYSA-N

$$$$

  Mrv2220 08292413132D          

  8  7  0  0  0  0            999 V2000
    0.1105   -2.0625    0.0000 C   0  0  0  0  0  0  0  0  0  0  0  0
    0.1105   -1.2375    0.0000 C   0  0  0  0  0  0  0  0  0  0  0  0
   -0.6039   -0.8250    0.0000 O   0  0  0  0  0  0  0  0  0  0  0  0
    0.8250   -0.8250    0.0000 C   0  0  0  0  0  0  0  0  0  0  0  0
    0.8250    0.0000    0.0000 C   0  0  0  0  0  0  0  0  0  0  0  0
    0.8250    0.8250    0.0000 C   0  0  0  0  0  0  0  0  0  0  0  0
    1.6500   -0.0000    0.0000 C   0  0  0  0  0  0  0  0  0  0  0  0
    0.0000    0.0000    0.0000 O   0  0  0  0  0  0  0  0  0  0  0  0
  1  2  1  0  0  0  0
  2  3  2  0  0  0  0
  2  4  1  0  0  0  0
  4  5  1  0  0  0  0
  5  6  1  0  0  0  0
  5  7  1  0  0  0  0
  5  8  1  0  0  0  0
M  END
> <activity>
-17.0

> <InChiKey>
SWXVUIWOUIDPGS-UHFFFAOYSA-N

$$$$

  Mrv2220 08292413132D          

 18 18  0  0  0  0            999 V2000
   -2.1434    1.2375    0.0000 C   0  0  0  0  0  0  0  0  0  0  0  0
   -1.4289    1.6500    0.0000 C   0  0  0  0  0  0  0  0  0  0  0  0
   -0.7145    1.2375    0.0000 C   0  0  0  0  0  0  0  0  0  0  0  0
    0.0000    1.6500    0.0000 O   0  0  0  0  0  0  0  0  0  0  0  0
    0.7145    1.2375    0.0000 C   0  0  0  0  0  0  0  0  0  0  0  0
    0.7145    0.4125    0.0000 O   0  0  0  0  0  0  0  0  0  0  0  0
    1.4289    1.6500    0.0000 C   0  0  0  0  0  0  0  0  0  0  0  0
    1.4289    2.4750    0.0000 C   0  0  0  0  0  0  0  0  0  0  0  0
    2.1434    2.8875    0.0000 C   0  0  0  0  0  0  0  0  0  0  0  0
    2.8579    2.4750    0.0000 C   0  0  0  0  0  0  0  0  0  0  0  0
    2.8579    1.6500    0.0000 C   0  0  0  0  0  0  0  0  0  0  0  0
    2.1434    1.2375    0.0000 C   0  0  0  0  0  0  0  0  0  0  0  0
    2.1434    0.4125    0.0000 C   0  0  0  0  0  0  0  0  0  0  0  0
    1.4289    0.0000    0.0000 O   0  0  0  0  0  0  0  0  0  0  0  0
    2.8579    0.0000    0.0000 O   0  0  0  0  0  0  0  0  0  0  0  0
    3.5724    0.4125    0.0000 C   0  0  0  0  0  0  0  0  0  0  0  0
    4.2868    0.0000    0.0000 C   0  0  0  0  0  0  0  0  0  0  0  0
    5.0013    0.4125    0.0000 C   0  0  0  0  0  0  0  0  0  0  0  0
  1  2  2  0  0  0  0
  2  3  1  0  0  0  0
  3  4  1  0  0  0  0
  4  5  1  0  0  0  0
  5  6  2  0  0  0  0
  5  7  1  0  0  0  0
  7  8  4  0  0  0  0
  8  9  4  0  0  0  0
  9 10  4  0  0  0  0
 10 11  4  0  0  0  0
 11 12  4  0  0  0  0
  7 12  4  0  0  0  0
 12 13  1  0  0  0  0
 13 14  2  0  0  0  0
 13 15  1  0  0  0  0
 15 16  1  0  0  0  0
 16 17  1  0  0  0  0
 17 18  2  0  0  0  0
M  END
> <activity>
65.2

> <InChiKey>
QUDWYFHPNIMBFC-UHFFFAOYSA-N

$$$$

  Mrv2220 08292413132D          

 19 19  0  0  0  0            999 V2000
    2.8579    4.1250    0.0000 C   0  0  0  0  0  0  0  0  0  0  0  0
    2.1434    3.7125    0.0000 C   0  0  0  0  0  0  0  0  0  0  0  0
    2.1434    2.8875    0.0000 O   0  0  0  0  0  0  0  0  0  0  0  0
    1.4289    2.4750    0.0000 P   0  0  0  0  0  0  0  0  0  0  0  0
    1.0164    3.1895    0.0000 S   0  0  0  0  0  0  0  0  0  0  0  0
    1.8414    1.7605    0.0000 O   0  0  0  0  0  0  0  0  0  0  0  0
    2.6664    1.7605    0.0000 C   0  0  0  0  0  0  0  0  0  0  0  0
    3.0789    1.0461    0.0000 C   0  0  0  0  0  0  0  0  0  0  0  0
    0.7145    2.0625    0.0000 O   0  0  0  0  0  0  0  0  0  0  0  0
    0.7145    1.2375    0.0000 C   0  0  0  0  0  0  0  0  0  0  0  0
    1.4289    0.8250    0.0000 C   0  0  0  0  0  0  0  0  0  0  0  0
    1.4289   -0.0000    0.0000 C   0  0  0  0  0  0  0  0  0  0  0  0
    2.1434   -0.4125    0.0000 C   0  0  0  0  0  0  0  0  0  0  0  0
    0.7145   -0.4125    0.0000 N   0  0  0  0  0  0  0  0  0  0  0  0
    0.0000    0.0000    0.0000 C   0  0  0  0  0  0  0  0  0  0  0  0
   -0.7145   -0.4125    0.0000 C   0  0  0  0  0  0  0  0  0  0  0  0
   -0.7145   -1.2375    0.0000 C   0  0  0  0  0  0  0  0  0  0  0  0
   -1.4289    0.0000    0.0000 C   0  0  0  0  0  0  0  0  0  0  0  0
    0.0000    0.8250    0.0000 N   0  0  0  0  0  0  0  0  0  0  0  0
  1  2  1  0  0  0  0
  2  3  1  0  0  0  0
  3  4  1  0  0  0  0
  4  5  2  0  0  0  0
  4  6  1  0  0  0  0
  6  7  1  0  0  0  0
  7  8  1  0  0  0  0
  4  9  1  0  0  0  0
  9 10  1  0  0  0  0
 10 11  4  0  0  0  0
 11 12  4  0  0  0  0
 12 13  1  0  0  0  0
 12 14  4  0  0  0  0
 14 15  4  0  0  0  0
 15 16  1  0  0  0  0
 16 17  1  0  0  0  0
 16 18  1  0  0  0  0
 15 19  4  0  0  0  0
 10 19  4  0  0  0  0
M  END
> <activity>
39.1

> <InChiKey>
FHIVAFMUCKRCQO-UHFFFAOYSA-N

$$$$

  Mrv2220 08292413132D          

 19 19  0  0  0  0            999 V2000
   -1.9537   -2.2075    0.0000 O   0  0  0  0  0  0  0  0  0  0  0  0
   -1.4017   -2.8206    0.0000 C   0  0  0  0  0  0  0  0  0  0  0  0
   -0.5812   -2.7343    0.0000 C   0  0  0  0  0  0  0  0  0  0  0  0
   -0.1687   -2.0199    0.0000 N   0  0  0  0  0  0  0  0  0  0  0  0
   -0.5812   -1.3054    0.0000 C   0  0  0  0  0  0  0  0  0  0  0  0
   -0.1687   -0.5909    0.0000 O   0  0  0  0  0  0  0  0  0  0  0  0
    0.6563   -2.0199    0.0000 C   0  0  0  0  0  0  0  0  0  0  0  0
    1.0688   -2.7343    0.0000 O   0  0  0  0  0  0  0  0  0  0  0  0
    1.0688   -1.3054    0.0000 N   0  0  0  0  0  0  0  0  0  0  0  0
    1.8938   -1.3054    0.0000 C   0  0  0  0  0  0  0  0  0  0  0  0
    2.3063   -0.5909    0.0000 O   0  0  0  0  0  0  0  0  0  0  0  0
   -0.2456   -3.4880    0.0000 N   0  0  0  0  0  0  0  0  0  0  0  0
    0.5613   -3.6595    0.0000 C   0  0  0  0  0  0  0  0  0  0  0  0
    0.8163   -4.4442    0.0000 O   0  0  0  0  0  0  0  0  0  0  0  0
   -0.8587   -4.0401    0.0000 C   0  0  0  0  0  0  0  0  0  0  0  0
   -0.7725   -4.8605    0.0000 O   0  0  0  0  0  0  0  0  0  0  0  0
   -1.5732   -3.6276    0.0000 N   0  0  0  0  0  0  0  0  0  0  0  0
   -2.3269   -3.9631    0.0000 C   0  0  0  0  0  0  0  0  0  0  0  0
   -2.4131   -4.7836    0.0000 O   0  0  0  0  0  0  0  0  0  0  0  0
  1  2  2  0  0  0  0
  2  3  1  0  0  0  0
  3  4  1  0  0  0  0
  4  5  1  0  0  0  0
  5  6  1  0  0  0  0
  4  7  1  0  0  0  0
  7  8  2  0  0  0  0
  7  9  1  0  0  0  0
  9 10  1  0  0  0  0
 10 11  1  0  0  0  0
  3 12  1  0  0  0  0
 12 13  1  0  0  0  0
 13 14  1  0  0  0  0
 12 15  1  0  0  0  0
 15 16  2  0  0  0  0
 15 17  1  0  0  0  0
  2 17  1  0  0  0  0
 17 18  1  0  0  0  0
 18 19  1  0  0  0  0
M  END
> <activity>
9.7

> <InChiKey>
SOROIESOUPGGFO-UHFFFAOYSA-N

$$$$

  Mrv2220 08292413132D          

 13 15  0  0  0  0            999 V2000
    3.9604    0.2410    0.0000 C   0  0  0  0  0  0  0  0  0  0  0  0
    3.7054    1.0256    0.0000 C   0  0  0  0  0  0  0  0  0  0  0  0
    2.8985    1.1971    0.0000 C   0  0  0  0  0  0  0  0  0  0  0  0
    2.3464    0.5840    0.0000 C   0  0  0  0  0  0  0  0  0  0  0  0
    2.6014   -0.2006    0.0000 C   0  0  0  0  0  0  0  0  0  0  0  0
    3.4084   -0.3721    0.0000 C   0  0  0  0  0  0  0  0  0  0  0  0
    1.9339   -0.6855    0.0000 S   0  0  0  0  0  0  0  0  0  0  0  0
    1.2665   -0.2006    0.0000 C   0  0  0  0  0  0  0  0  0  0  0  0
    0.4595   -0.3721    0.0000 C   0  0  0  0  0  0  0  0  0  0  0  0
   -0.0925    0.2410    0.0000 C   0  0  0  0  0  0  0  0  0  0  0  0
    0.1624    1.0256    0.0000 C   0  0  0  0  0  0  0  0  0  0  0  0
    0.9694    1.1971    0.0000 C   0  0  0  0  0  0  0  0  0  0  0  0
    1.5214    0.5840    0.0000 C   0  0  0  0  0  0  0  0  0  0  0  0
  1  2  4  0  0  0  0
  2  3  4  0  0  0  0
  3  4  4  0  0  0  0
  4  5  4  0  0  0  0
  5  6  4  0  0  0  0
  1  6  4  0  0  0  0
  5  7  4  0  0  0  0
  7  8  4  0  0  0  0
  8  9  4  0  0  0  0
  9 10  4  0  0  0  0
 10 11  4  0  0  0  0
 11 12  4  0  0  0  0
 12 13  4  0  0  0  0
  8 13  4  0  0  0  0
  4 13  4  0  0  0  0
M  END
> <activity>
15.7

> <InChiKey>
IYYZUPMFVPLQIF-UHFFFAOYSA-N

$$$$

  Mrv2220 08292413132D          

 20 20  0  0  0  0            999 V2000
   -1.4289   -4.1250    0.0000 C   0  0  0  0  0  0  0  0  0  0  0  0
   -0.7145   -3.7125    0.0000 C   0  0  0  0  0  0  0  0  0  0  0  0
   -0.7145   -2.8875    0.0000 C   0  0  0  0  0  0  0  0  0  0  0  0
    0.0000   -2.4750    0.0000 C   0  0  0  0  0  0  0  0  0  0  0  0
    0.0000   -1.6500    0.0000 O   0  0  0  0  0  0  0  0  0  0  0  0
    0.7145   -1.2375    0.0000 C   0  0  0  0  0  0  0  0  0  0  0  0
    1.4289   -1.6500    0.0000 O   0  0  0  0  0  0  0  0  0  0  0  0
    0.7145   -0.4125    0.0000 C   0  0  0  0  0  0  0  0  0  0  0  0
    0.0000    0.0000    0.0000 C   0  0  0  0  0  0  0  0  0  0  0  0
    0.0000    0.8250    0.0000 C   0  0  0  0  0  0  0  0  0  0  0  0
    0.7145    1.2375    0.0000 C   0  0  0  0  0  0  0  0  0  0  0  0
    1.4289    0.8250    0.0000 C   0  0  0  0  0  0  0  0  0  0  0  0
    1.4289    0.0000    0.0000 C   0  0  0  0  0  0  0  0  0  0  0  0
    2.1434   -0.4125    0.0000 C   0  0  0  0  0  0  0  0  0  0  0  0
    2.1434   -1.2375    0.0000 O   0  0  0  0  0  0  0  0  0  0  0  0
    2.8579    0.0000    0.0000 O   0  0  0  0  0  0  0  0  0  0  0  0
    3.5724   -0.4125    0.0000 C   0  0  0  0  0  0  0  0  0  0  0  0
    4.2868    0.0000    0.0000 C   0  0  0  0  0  0  0  0  0  0  0  0
    5.0013   -0.4125    0.0000 C   0  0  0  0  0  0  0  0  0  0  0  0
    5.7158    0.0000    0.0000 C   0  0  0  0  0  0  0  0  0  0  0  0
  1  2  1  0  0  0  0
  2  3  1  0  0  0  0
  3  4  1  0  0  0  0
  4  5  1  0  0  0  0
  5  6  1  0  0  0  0
  6  7  2  0  0  0  0
  6  8  1  0  0  0  0
  8  9  4  0  0  0  0
  9 10  4  0  0  0  0
 10 11  4  0  0  0  0
 11 12  4  0  0  0  0
 12 13  4  0  0  0  0
  8 13  4  0  0  0  0
 13 14  1  0  0  0  0
 14 15  2  0  0  0  0
 14 16  1  0  0  0  0
 16 17  1  0  0  0  0
 17 18  1  0  0  0  0
 18 19  1  0  0  0  0
 19 20  1  0  0  0  0
M  END
> <activity>
70.8

> <InChiKey>
DOIRQSBPFJWKBE-UHFFFAOYSA-N

$$$$

  Mrv2220 08292413132D          

 18 17  0  0  0  0            999 V2000
    5.9961    4.2868    0.0000 C   0  0  0  0  0  0  0  0  0  0  0  0
    6.7105    4.6993    0.0000 C   0  0  0  0  0  0  0  0  0  0  0  0
    7.4250    4.2868    0.0000 C   0  0  0  0  0  0  0  0  0  0  0  0
    8.1395    4.6993    0.0000 C   0  0  0  0  0  0  0  0  0  0  0  0
    8.8539    4.2868    0.0000 O   0  0  0  0  0  0  0  0  0  0  0  0
    9.5684    4.6993    0.0000 C   0  0  0  0  0  0  0  0  0  0  0  0
    9.5684    5.5243    0.0000 O   0  0  0  0  0  0  0  0  0  0  0  0
   10.2829    4.2868    0.0000 C   0  0  0  0  0  0  0  0  0  0  0  0
   10.9974    4.6993    0.0000 C   0  0  0  0  0  0  0  0  0  0  0  0
   11.7118    4.2868    0.0000 C   0  0  0  0  0  0  0  0  0  0  0  0
   12.4263    4.6993    0.0000 C   0  0  0  0  0  0  0  0  0  0  0  0
   13.1408    4.2868    0.0000 C   0  0  0  0  0  0  0  0  0  0  0  0
   13.1408    3.4618    0.0000 O   0  0  0  0  0  0  0  0  0  0  0  0
   13.8552    4.6993    0.0000 O   0  0  0  0  0  0  0  0  0  0  0  0
   14.5697    4.2868    0.0000 C   0  0  0  0  0  0  0  0  0  0  0  0
   15.2842    4.6993    0.0000 C   0  0  0  0  0  0  0  0  0  0  0  0
   15.9987    4.2868    0.0000 C   0  0  0  0  0  0  0  0  0  0  0  0
   16.7131    4.6993    0.0000 C   0  0  0  0  0  0  0  0  0  0  0  0
  1  2  1  0  0  0  0
  2  3  1  0  0  0  0
  3  4  1  0  0  0  0
  4  5  1  0  0  0  0
  5  6  1  0  0  0  0
  6  7  2  0  0  0  0
  6  8  1  0  0  0  0
  8  9  1  0  0  0  0
  9 10  1  0  0  0  0
 10 11  1  0  0  0  0
 11 12  1  0  0  0  0
 12 13  2  0  0  0  0
 12 14  1  0  0  0  0
 14 15  1  0  0  0  0
 15 16  1  0  0  0  0
 16 17  1  0  0  0  0
 17 18  1  0  0  0  0
M  END
> <activity>
9.9

> <InChiKey>
XTJFFFGAUHQWII-UHFFFAOYSA-N

$$$$

  Mrv2220 08292413132D          

 21 20  0  0  0  0            999 V2000
    9.1855    6.1283    0.0000 C   0  0  0  0  0  0  0  0  0  0  0  0
    9.9000    5.7158    0.0000 C   0  0  0  0  0  0  0  0  0  0  0  0
   10.6145    6.1283    0.0000 C   0  0  0  0  0  0  0  0  0  0  0  0
   11.3289    5.7158    0.0000 C   0  0  0  0  0  0  0  0  0  0  0  0
   12.0434    6.1283    0.0000 O   0  0  0  0  0  0  0  0  0  0  0  0
   12.7579    5.7158    0.0000 C   0  0  0  0  0  0  0  0  0  0  0  0
   12.7579    4.8908    0.0000 O   0  0  0  0  0  0  0  0  0  0  0  0
   13.4724    6.1283    0.0000 C   0  0  0  0  0  0  0  0  0  0  0  0
   14.1868    5.7158    0.0000 C   0  0  0  0  0  0  0  0  0  0  0  0
   14.9013    6.1283    0.0000 C   0  0  0  0  0  0  0  0  0  0  0  0
   15.6158    5.7158    0.0000 C   0  0  0  0  0  0  0  0  0  0  0  0
   16.3302    6.1283    0.0000 C   0  0  0  0  0  0  0  0  0  0  0  0
   17.0447    5.7158    0.0000 C   0  0  0  0  0  0  0  0  0  0  0  0
   17.7592    6.1283    0.0000 C   0  0  0  0  0  0  0  0  0  0  0  0
   18.4737    5.7158    0.0000 C   0  0  0  0  0  0  0  0  0  0  0  0
   18.4737    4.8908    0.0000 O   0  0  0  0  0  0  0  0  0  0  0  0
   19.1881    6.1283    0.0000 O   0  0  0  0  0  0  0  0  0  0  0  0
   19.9026    5.7158    0.0000 C   0  0  0  0  0  0  0  0  0  0  0  0
   20.6171    6.1283    0.0000 C   0  0  0  0  0  0  0  0  0  0  0  0
   21.3315    5.7158    0.0000 C   0  0  0  0  0  0  0  0  0  0  0  0
   22.0460    6.1283    0.0000 C   0  0  0  0  0  0  0  0  0  0  0  0
  1  2  1  0  0  0  0
  2  3  1  0  0  0  0
  3  4  1  0  0  0  0
  4  5  1  0  0  0  0
  5  6  1  0  0  0  0
  6  7  2  0  0  0  0
  6  8  1  0  0  0  0
  8  9  1  0  0  0  0
  9 10  1  0  0  0  0
 10 11  1  0  0  0  0
 11 12  1  0  0  0  0
 12 13  1  0  0  0  0
 13 14  1  0  0  0  0
 14 15  1  0  0  0  0
 15 16  2  0  0  0  0
 15 17  1  0  0  0  0
 17 18  1  0  0  0  0
 18 19  1  0  0  0  0
 19 20  1  0  0  0  0
 20 21  1  0  0  0  0
M  END
> <activity>
29.2

> <InChiKey>
RISLXYINQFKFRL-UHFFFAOYSA-N

$$$$

  Mrv2220 08292413132D          

 22 21  0  0  0  0            999 V2000
    8.4711    5.7158    0.0000 C   0  0  0  0  0  0  0  0  0  0  0  0
    9.1855    6.1283    0.0000 C   0  0  0  0  0  0  0  0  0  0  0  0
    9.9000    5.7158    0.0000 C   0  0  0  0  0  0  0  0  0  0  0  0
   10.6145    6.1283    0.0000 C   0  0  0  0  0  0  0  0  0  0  0  0
   11.3289    5.7158    0.0000 O   0  0  0  0  0  0  0  0  0  0  0  0
   12.0434    6.1283    0.0000 C   0  0  0  0  0  0  0  0  0  0  0  0
   12.0434    6.9533    0.0000 O   0  0  0  0  0  0  0  0  0  0  0  0
   12.7579    5.7158    0.0000 C   0  0  0  0  0  0  0  0  0  0  0  0
   13.4724    6.1283    0.0000 C   0  0  0  0  0  0  0  0  0  0  0  0
   14.1868    5.7158    0.0000 C   0  0  0  0  0  0  0  0  0  0  0  0
   14.9013    6.1283    0.0000 C   0  0  0  0  0  0  0  0  0  0  0  0
   15.6158    5.7158    0.0000 C   0  0  0  0  0  0  0  0  0  0  0  0
   16.3302    6.1283    0.0000 C   0  0  0  0  0  0  0  0  0  0  0  0
   17.0447    5.7158    0.0000 C   0  0  0  0  0  0  0  0  0  0  0  0
   17.7592    6.1283    0.0000 C   0  0  0  0  0  0  0  0  0  0  0  0
   18.4737    5.7158    0.0000 C   0  0  0  0  0  0  0  0  0  0  0  0
   18.4737    4.8908    0.0000 O   0  0  0  0  0  0  0  0  0  0  0  0
   19.1881    6.1283    0.0000 O   0  0  0  0  0  0  0  0  0  0  0  0
   19.9026    5.7158    0.0000 C   0  0  0  0  0  0  0  0  0  0  0  0
   20.6171    6.1283    0.0000 C   0  0  0  0  0  0  0  0  0  0  0  0
   21.3315    5.7158    0.0000 C   0  0  0  0  0  0  0  0  0  0  0  0
   22.0460    6.1283    0.0000 C   0  0  0  0  0  0  0  0  0  0  0  0
  1  2  1  0  0  0  0
  2  3  1  0  0  0  0
  3  4  1  0  0  0  0
  4  5  1  0  0  0  0
  5  6  1  0  0  0  0
  6  7  2  0  0  0  0
  6  8  1  0  0  0  0
  8  9  1  0  0  0  0
  9 10  1  0  0  0  0
 10 11  1  0  0  0  0
 11 12  1  0  0  0  0
 12 13  1  0  0  0  0
 13 14  1  0  0  0  0
 14 15  1  0  0  0  0
 15 16  1  0  0  0  0
 16 17  2  0  0  0  0
 16 18  1  0  0  0  0
 18 19  1  0  0  0  0
 19 20  1  0  0  0  0
 20 21  1  0  0  0  0
 21 22  1  0  0  0  0
M  END
> <activity>
-0.5

> <InChiKey>
PYGXAGIECVVIOZ-UHFFFAOYSA-N

$$$$

  Mrv2220 08292413132D          

 13 13  0  0  0  0            999 V2000
    0.0000    2.4750    0.0000 C   0  0  0  0  0  0  0  0  0  0  0  0
    0.7145    2.0625    0.0000 O   0  0  0  0  0  0  0  0  0  0  0  0
    0.7145    1.2375    0.0000 C   0  0  0  0  0  0  0  0  0  0  0  0
    1.4289    0.8250    0.0000 C   0  0  0  0  0  0  0  0  0  0  0  0
    2.1434    1.2375    0.0000 Cl  0  0  0  0  0  0  0  0  0  0  0  0
    1.4289   -0.0000    0.0000 C   0  0  0  0  0  0  0  0  0  0  0  0
    0.7145   -0.4125    0.0000 C   0  0  0  0  0  0  0  0  0  0  0  0
    0.0000    0.0000    0.0000 C   0  0  0  0  0  0  0  0  0  0  0  0
   -0.7145   -0.4125    0.0000 Cl  0  0  0  0  0  0  0  0  0  0  0  0
    0.0000    0.8250    0.0000 C   0  0  0  0  0  0  0  0  0  0  0  0
   -0.7145    1.2375    0.0000 C   0  0  0  0  0  0  0  0  0  0  0  0
   -0.7145    2.0625    0.0000 O   0  0  0  0  0  0  0  0  0  0  0  0
   -1.4289    0.8250    0.0000 O   0  0  0  0  0  0  0  0  0  0  0  0
  1  2  1  0  0  0  0
  2  3  1  0  0  0  0
  3  4  4  0  0  0  0
  4  5  1  0  0  0  0
  4  6  4  0  0  0  0
  6  7  4  0  0  0  0
  7  8  4  0  0  0  0
  8  9  1  0  0  0  0
  8 10  4  0  0  0  0
  3 10  4  0  0  0  0
 10 11  1  0  0  0  0
 11 12  2  0  0  0  0
 11 13  1  0  0  0  0
M  END
> <activity>
62.8

> <InChiKey>
IWEDIXLBFLAXBO-UHFFFAOYSA-N

$$$$

  Mrv2220 08292413132D          

 12 11  0  0  0  0            999 V2000
    1.4289   -4.7289    0.0000 C   0  0  0  0  0  0  0  0  0  0  0  0
    1.4289   -3.9039    0.0000 C   0  0  0  0  0  0  0  0  0  0  0  0
    0.7145   -3.4914    0.0000 C   0  0  0  0  0  0  0  0  0  0  0  0
    0.7145   -2.6664    0.0000 N   0  0  0  0  0  0  0  0  0  0  0  0
    0.0000   -2.2539    0.0000 C   0  0  0  0  0  0  0  0  0  0  0  0
    0.0000   -1.4289    0.0000 C   0  0  0  0  0  0  0  0  0  0  0  0
   -0.7145   -1.0164    0.0000 C   0  0  0  0  0  0  0  0  0  0  0  0
    1.4289   -2.2539    0.0000 C   0  0  0  0  0  0  0  0  0  0  0  0
    2.1434   -2.6664    0.0000 O   0  0  0  0  0  0  0  0  0  0  0  0
    1.4289   -1.4289    0.0000 C   0  0  0  0  0  0  0  0  0  0  0  0
    0.7145   -1.0164    0.0000 Cl  0  0  0  0  0  0  0  0  0  0  0  0
    2.1434   -1.0164    0.0000 Cl  0  0  0  0  0  0  0  0  0  0  0  0
  1  2  2  0  0  0  0
  2  3  1  0  0  0  0
  3  4  1  0  0  0  0
  4  5  1  0  0  0  0
  5  6  1  0  0  0  0
  6  7  2  0  0  0  0
  4  8  1  0  0  0  0
  8  9  2  0  0  0  0
  8 10  1  0  0  0  0
 10 11  1  0  0  0  0
 10 12  1  0  0  0  0
M  END
> <activity>
17.2

> <InChiKey>
YRMLFORXOOIJDR-UHFFFAOYSA-N

$$$$

  Mrv2220 08292413132D          

 17 18  0  0  0  0            999 V2000
    2.1434   -0.4125    0.0000 O   0  0  0  0  0  0  0  0  0  0  0  0
    2.1434   -1.2375    0.0000 C   0  0  0  0  0  0  0  0  0  0  0  0
    1.4289   -1.6500    0.0000 C   0  0  0  0  0  0  0  0  0  0  0  0
    1.4289   -2.4750    0.0000 C   0  0  0  0  0  0  0  0  0  0  0  0
    2.1434   -2.8875    0.0000 C   0  0  0  0  0  0  0  0  0  0  0  0
    2.1434   -3.7125    0.0000 Cl  0  0  0  0  0  0  0  0  0  0  0  0
    2.8579   -2.4750    0.0000 C   0  0  0  0  0  0  0  0  0  0  0  0
    2.8579   -1.6500    0.0000 C   0  0  0  0  0  0  0  0  0  0  0  0
    3.5724   -1.2375    0.0000 C   0  0  0  0  0  0  0  0  0  0  0  0
    4.2868   -1.6500    0.0000 C   0  0  0  0  0  0  0  0  0  0  0  0
    5.0013   -1.2375    0.0000 C   0  0  0  0  0  0  0  0  0  0  0  0
    5.7158   -1.6500    0.0000 C   0  0  0  0  0  0  0  0  0  0  0  0
    6.4302   -1.2375    0.0000 Cl  0  0  0  0  0  0  0  0  0  0  0  0
    5.7158   -2.4750    0.0000 C   0  0  0  0  0  0  0  0  0  0  0  0
    5.0013   -2.8875    0.0000 C   0  0  0  0  0  0  0  0  0  0  0  0
    4.2868   -2.4750    0.0000 C   0  0  0  0  0  0  0  0  0  0  0  0
    3.5724   -2.8875    0.0000 O   0  0  0  0  0  0  0  0  0  0  0  0
  1  2  1  0  0  0  0
  2  3  4  0  0  0  0
  3  4  4  0  0  0  0
  4  5  4  0  0  0  0
  5  6  1  0  0  0  0
  5  7  4  0  0  0  0
  7  8  4  0  0  0  0
  2  8  4  0  0  0  0
  8  9  1  0  0  0  0
  9 10  1  0  0  0  0
 10 11  4  0  0  0  0
 11 12  4  0  0  0  0
 12 13  1  0  0  0  0
 12 14  4  0  0  0  0
 14 15  4  0  0  0  0
 15 16  4  0  0  0  0
 10 16  4  0  0  0  0
 16 17  1  0  0  0  0
M  END
> <activity>
105.5

> <InChiKey>
MDNWOSOZYLHTCG-UHFFFAOYSA-N

$$$$

  Mrv2220 08292413132D          

 14 14  0  0  0  0            999 V2000
   -0.7145    2.0625    0.0000 C   0  0  0  0  0  0  0  0  0  0  0  0
    0.0000    2.4750    0.0000 C   0  0  0  0  0  0  0  0  0  0  0  0
    0.7145    2.0625    0.0000 O   0  0  0  0  0  0  0  0  0  0  0  0
    0.7145    1.2375    0.0000 C   0  0  0  0  0  0  0  0  0  0  0  0
    1.4289    0.8250    0.0000 C   0  0  0  0  0  0  0  0  0  0  0  0
    1.4289   -0.0000    0.0000 C   0  0  0  0  0  0  0  0  0  0  0  0
    0.7145   -0.4125    0.0000 C   0  0  0  0  0  0  0  0  0  0  0  0
    0.7145   -1.2375    0.0000 Cl  0  0  0  0  0  0  0  0  0  0  0  0
    0.0000    0.0000    0.0000 C   0  0  0  0  0  0  0  0  0  0  0  0
    0.0000    0.8250    0.0000 C   0  0  0  0  0  0  0  0  0  0  0  0
   -0.7145    1.2375    0.0000 Cl  0  0  0  0  0  0  0  0  0  0  0  0
    0.0000    3.3000    0.0000 C   0  0  0  0  0  0  0  0  0  0  0  0
   -0.7145    3.7125    0.0000 O   0  0  0  0  0  0  0  0  0  0  0  0
    0.7145    3.7125    0.0000 O   0  0  0  0  0  0  0  0  0  0  0  0
  1  2  1  0  0  0  0
  2  3  1  0  0  0  0
  3  4  1  0  0  0  0
  4  5  4  0  0  0  0
  5  6  4  0  0  0  0
  6  7  4  0  0  0  0
  7  8  1  0  0  0  0
  7  9  4  0  0  0  0
  9 10  4  0  0  0  0
  4 10  4  0  0  0  0
 10 11  1  0  0  0  0
  2 12  1  0  0  0  0
 12 13  2  0  0  0  0
 12 14  1  0  0  0  0
M  END
> <activity>
81.7

> <InChiKey>
MZHCENGPTKEIGP-UHFFFAOYSA-N

$$$$

  Mrv2220 08292413132D          

 11 10  0  0  0  0            999 V2000
    3.3000    1.4289    0.0000 C   0  0  0  0  0  0  0  0  0  0  0  0
    2.8875    0.7145    0.0000 O   0  0  0  0  0  0  0  0  0  0  0  0
    2.0625    0.7145    0.0000 P   0  0  0  0  0  0  0  0  0  0  0  0
    2.0625    1.5395    0.0000 O   0  0  0  0  0  0  0  0  0  0  0  0
    2.0625   -0.1105    0.0000 O   0  0  0  0  0  0  0  0  0  0  0  0
    1.3480   -0.5230    0.0000 C   0  0  0  0  0  0  0  0  0  0  0  0
    1.2375    0.7145    0.0000 O   0  0  0  0  0  0  0  0  0  0  0  0
    0.8250    0.0000    0.0000 C   0  0  0  0  0  0  0  0  0  0  0  0
    0.0000    0.0000    0.0000 C   0  0  0  0  0  0  0  0  0  0  0  0
   -0.4125   -0.7145    0.0000 Cl  0  0  0  0  0  0  0  0  0  0  0  0
   -0.4125    0.7145    0.0000 Cl  0  0  0  0  0  0  0  0  0  0  0  0
  1  2  1  0  0  0  0
  2  3  1  0  0  0  0
  3  4  2  0  0  0  0
  3  5  1  0  0  0  0
  5  6  1  0  0  0  0
  3  7  1  0  0  0  0
  7  8  1  0  0  0  0
  8  9  2  0  0  0  0
  9 10  1  0  0  0  0
  9 11  1  0  0  0  0
M  END
> <activity>
13.9

> <InChiKey>
OEBRKCOSUFCWJD-UHFFFAOYSA-N

$$$$

  Mrv2220 08292413132D          

 20 21  0  0  0  0            999 V2000
   -0.1105   -1.2375    0.0000 O   0  0  0  0  0  0  0  0  0  0  0  0
    0.7145   -1.2375    0.0000 C   0  0  0  0  0  0  0  0  0  0  0  0
    0.7145   -2.0625    0.0000 C   0  0  0  0  0  0  0  0  0  0  0  0
    1.4289   -2.4750    0.0000 C   0  0  0  0  0  0  0  0  0  0  0  0
    1.4289   -3.3000    0.0000 C   0  0  0  0  0  0  0  0  0  0  0  0
    0.7145   -3.7125    0.0000 C   0  0  0  0  0  0  0  0  0  0  0  0
    0.7145   -4.5375    0.0000 Cl  0  0  0  0  0  0  0  0  0  0  0  0
    0.0000   -3.3000    0.0000 C   0  0  0  0  0  0  0  0  0  0  0  0
    0.0000   -2.4750    0.0000 C   0  0  0  0  0  0  0  0  0  0  0  0
    0.7145   -0.4125    0.0000 C   0  0  0  0  0  0  0  0  0  0  0  0
    0.0000    0.0000    0.0000 C   0  0  0  0  0  0  0  0  0  0  0  0
    0.0000    0.8250    0.0000 C   0  0  0  0  0  0  0  0  0  0  0  0
    0.7145    1.2375    0.0000 C   0  0  0  0  0  0  0  0  0  0  0  0
    0.7145    2.0625    0.0000 Cl  0  0  0  0  0  0  0  0  0  0  0  0
    1.4289    0.8250    0.0000 C   0  0  0  0  0  0  0  0  0  0  0  0
    1.4289   -0.0000    0.0000 C   0  0  0  0  0  0  0  0  0  0  0  0
    1.5395   -1.2375    0.0000 C   0  0  0  0  0  0  0  0  0  0  0  0
    2.3645   -1.2375    0.0000 Cl  0  0  0  0  0  0  0  0  0  0  0  0
    1.5395   -2.0625    0.0000 Cl  0  0  0  0  0  0  0  0  0  0  0  0
    1.5395   -0.4125    0.0000 Cl  0  0  0  0  0  0  0  0  0  0  0  0
  1  2  1  0  0  0  0
  2  3  1  0  0  0  0
  3  4  4  0  0  0  0
  4  5  4  0  0  0  0
  5  6  4  0  0  0  0
  6  7  1  0  0  0  0
  6  8  4  0  0  0  0
  8  9  4  0  0  0  0
  3  9  4  0  0  0  0
  2 10  1  0  0  0  0
 10 11  4  0  0  0  0
 11 12  4  0  0  0  0
 12 13  4  0  0  0  0
 13 14  1  0  0  0  0
 13 15  4  0  0  0  0
 15 16  4  0  0  0  0
 10 16  4  0  0  0  0
  2 17  1  0  0  0  0
 17 18  1  0  0  0  0
 17 19  1  0  0  0  0
 17 20  1  0  0  0  0
M  END
> <activity>
64.6

> <InChiKey>
UOAMTSKGCBMZTC-UHFFFAOYSA-N

$$$$

  Mrv2220 08292413132D          

 20 21  0  0  0  0            999 V2000
    1.5395   -1.2375    0.0000 C   0  0  0  0  0  0  0  0  0  0  0  0
    0.7145   -1.2375    0.0000 C   0  0  0  0  0  0  0  0  0  0  0  0
   -0.1105   -1.2375    0.0000 C   0  0  0  0  0  0  0  0  0  0  0  0
    0.7145   -2.0625    0.0000 O   0  0  0  0  0  0  0  0  0  0  0  0
    1.4289   -2.4750    0.0000 O   0  0  0  0  0  0  0  0  0  0  0  0
    1.4289   -3.3000    0.0000 C   0  0  0  0  0  0  0  0  0  0  0  0
    2.2539   -3.3000    0.0000 C   0  0  0  0  0  0  0  0  0  0  0  0
    0.6039   -3.3000    0.0000 C   0  0  0  0  0  0  0  0  0  0  0  0
    1.4289   -4.1250    0.0000 C   0  0  0  0  0  0  0  0  0  0  0  0
    2.1434   -4.5375    0.0000 C   0  0  0  0  0  0  0  0  0  0  0  0
    2.1434   -5.3625    0.0000 C   0  0  0  0  0  0  0  0  0  0  0  0
    1.4289   -5.7750    0.0000 C   0  0  0  0  0  0  0  0  0  0  0  0
    0.7145   -5.3625    0.0000 C   0  0  0  0  0  0  0  0  0  0  0  0
    0.7145   -4.5375    0.0000 C   0  0  0  0  0  0  0  0  0  0  0  0
    0.7145   -0.4125    0.0000 C   0  0  0  0  0  0  0  0  0  0  0  0
    0.0000    0.0000    0.0000 C   0  0  0  0  0  0  0  0  0  0  0  0
    0.0000    0.8250    0.0000 C   0  0  0  0  0  0  0  0  0  0  0  0
    0.7145    1.2375    0.0000 C   0  0  0  0  0  0  0  0  0  0  0  0
    1.4289    0.8250    0.0000 C   0  0  0  0  0  0  0  0  0  0  0  0
    1.4289    0.0000    0.0000 C   0  0  0  0  0  0  0  0  0  0  0  0
  1  2  1  0  0  0  0
  2  3  1  0  0  0  0
  2  4  1  0  0  0  0
  4  5  1  0  0  0  0
  5  6  1  0  0  0  0
  6  7  1  0  0  0  0
  6  8  1  0  0  0  0
  6  9  1  0  0  0  0
  9 10  4  0  0  0  0
 10 11  4  0  0  0  0
 11 12  4  0  0  0  0
 12 13  4  0  0  0  0
 13 14  4  0  0  0  0
  9 14  4  0  0  0  0
  2 15  1  0  0  0  0
 15 16  4  0  0  0  0
 16 17  4  0  0  0  0
 17 18  4  0  0  0  0
 18 19  4  0  0  0  0
 19 20  4  0  0  0  0
 15 20  4  0  0  0  0
M  END
> <activity>
80.7

> <InChiKey>
XMNIXWIUMCBBBL-UHFFFAOYSA-N

$$$$

  Mrv2220 08292413132D          

 14 15  0  0  0  0            999 V2000
    1.4289   -4.1250    0.0000 C   0  0  0  0  0  0  0  0  0  0  0  0
    0.7145   -3.7125    0.0000 C   0  0  0  0  0  0  0  0  0  0  0  0
    0.7145   -2.8875    0.0000 C   0  0  0  0  0  0  0  0  0  0  0  0
    1.4289   -2.4750    0.0000 C   0  0  0  0  0  0  0  0  0  0  0  0
    1.4289   -1.6500    0.0000 S   0  0  0  0  0  0  0  0  0  0  0  0
    0.7145   -1.2375    0.0000 S   0  0  0  0  0  0  0  0  0  0  0  0
    0.7145   -0.4125    0.0000 C   0  0  0  0  0  0  0  0  0  0  0  0
    0.0000    0.0000    0.0000 C   0  0  0  0  0  0  0  0  0  0  0  0
    0.0000    0.8250    0.0000 C   0  0  0  0  0  0  0  0  0  0  0  0
    0.7145    1.2375    0.0000 C   0  0  0  0  0  0  0  0  0  0  0  0
    1.4289    0.8250    0.0000 C   0  0  0  0  0  0  0  0  0  0  0  0
    1.4289    0.0000    0.0000 C   0  0  0  0  0  0  0  0  0  0  0  0
    2.1434   -2.8875    0.0000 C   0  0  0  0  0  0  0  0  0  0  0  0
    2.1434   -3.7125    0.0000 C   0  0  0  0  0  0  0  0  0  0  0  0
  1  2  1  0  0  0  0
  2  3  1  0  0  0  0
  3  4  1  0  0  0  0
  4  5  1  0  0  0  0
  5  6  1  0  0  0  0
  6  7  1  0  0  0  0
  7  8  1  0  0  0  0
  8  9  1  0  0  0  0
  9 10  1  0  0  0  0
 10 11  1  0  0  0  0
 11 12  1  0  0  0  0
  7 12  1  0  0  0  0
  4 13  1  0  0  0  0
 13 14  1  0  0  0  0
  1 14  1  0  0  0  0
M  END
> <activity>
22.7

> <InChiKey>
ODHAQPXNQDBHSH-UHFFFAOYSA-N

$$$$

  Mrv2220 08292413132D          

 24 26  0  0  0  0            999 V2000
    6.4302   -0.4125    0.0000 O   0  0  0  0  0  0  0  0  0  0  0  0
    5.7158    0.0000    0.0000 C   0  0  0  0  0  0  0  0  0  0  0  0
    5.0013   -0.4125    0.0000 O   0  0  0  0  0  0  0  0  0  0  0  0
    5.0013   -1.2375    0.0000 C   0  0  0  0  0  0  0  0  0  0  0  0
    5.7158   -1.6500    0.0000 C   0  0  0  0  0  0  0  0  0  0  0  0
    5.7158   -2.4750    0.0000 C   0  0  0  0  0  0  0  0  0  0  0  0
    5.0013   -2.8875    0.0000 C   0  0  0  0  0  0  0  0  0  0  0  0
    4.2868   -2.4750    0.0000 C   0  0  0  0  0  0  0  0  0  0  0  0
    4.2868   -1.6500    0.0000 C   0  0  0  0  0  0  0  0  0  0  0  0
    5.7158    0.8250    0.0000 C   0  0  0  0  0  0  0  0  0  0  0  0
    5.0013    1.2375    0.0000 C   0  0  0  0  0  0  0  0  0  0  0  0
    5.0013    2.0625    0.0000 C   0  0  0  0  0  0  0  0  0  0  0  0
    5.7158    2.4750    0.0000 C   0  0  0  0  0  0  0  0  0  0  0  0
    6.4302    2.0625    0.0000 C   0  0  0  0  0  0  0  0  0  0  0  0
    6.4302    1.2375    0.0000 C   0  0  0  0  0  0  0  0  0  0  0  0
    7.1447    0.8250    0.0000 C   0  0  0  0  0  0  0  0  0  0  0  0
    7.1447    0.0000    0.0000 O   0  0  0  0  0  0  0  0  0  0  0  0
    7.8592    1.2375    0.0000 O   0  0  0  0  0  0  0  0  0  0  0  0
    8.5737    0.8250    0.0000 C   0  0  0  0  0  0  0  0  0  0  0  0
    9.2881    1.2375    0.0000 C   0  0  0  0  0  0  0  0  0  0  0  0
   10.0026    0.8250    0.0000 C   0  0  0  0  0  0  0  0  0  0  0  0
   10.0026   -0.0000    0.0000 C   0  0  0  0  0  0  0  0  0  0  0  0
    9.2881   -0.4125    0.0000 C   0  0  0  0  0  0  0  0  0  0  0  0
    8.5737    0.0000    0.0000 C   0  0  0  0  0  0  0  0  0  0  0  0
  1  2  2  0  0  0  0
  2  3  1  0  0  0  0
  3  4  1  0  0  0  0
  4  5  1  0  0  0  0
  5  6  1  0  0  0  0
  6  7  1  0  0  0  0
  7  8  1  0  0  0  0
  8  9  1  0  0  0  0
  4  9  1  0  0  0  0
  2 10  1  0  0  0  0
 10 11  4  0  0  0  0
 11 12  4  0  0  0  0
 12 13  4  0  0  0  0
 13 14  4  0  0  0  0
 14 15  4  0  0  0  0
 10 15  4  0  0  0  0
 15 16  1  0  0  0  0
 16 17  2  0  0  0  0
 16 18  1  0  0  0  0
 18 19  1  0  0  0  0
 19 20  1  0  0  0  0
 20 21  1  0  0  0  0
 21 22  1  0  0  0  0
 22 23  1  0  0  0  0
 23 24  1  0  0  0  0
 19 24  1  0  0  0  0
M  END
> <activity>
37.8

> <InChiKey>
VOWAEIGWURALJQ-UHFFFAOYSA-N

$$$$

  Mrv2220 08292413132D          

 24 25  0  0  0  0            999 V2000
    4.0954   -3.1895    0.0000 O   0  0  0  0  0  0  0  0  0  0  0  0
    4.5079   -2.4750    0.0000 C   0  0  0  0  0  0  0  0  0  0  0  0
    4.0954   -1.7605    0.0000 C   0  0  0  0  0  0  0  0  0  0  0  0
    3.2704   -1.7605    0.0000 C   0  0  0  0  0  0  0  0  0  0  0  0
    2.8579   -1.0461    0.0000 C   0  0  0  0  0  0  0  0  0  0  0  0
    3.2704   -0.3316    0.0000 O   0  0  0  0  0  0  0  0  0  0  0  0
    2.0329   -1.0461    0.0000 O   0  0  0  0  0  0  0  0  0  0  0  0
    1.6204   -0.3316    0.0000 C   0  0  0  0  0  0  0  0  0  0  0  0
    0.7954   -0.3316    0.0000 C   0  0  0  0  0  0  0  0  0  0  0  0
    0.3829    0.3829    0.0000 C   0  0  0  0  0  0  0  0  0  0  0  0
    0.7954    1.0974    0.0000 C   0  0  0  0  0  0  0  0  0  0  0  0
    1.6204    1.0974    0.0000 C   0  0  0  0  0  0  0  0  0  0  0  0
    2.0329    0.3829    0.0000 C   0  0  0  0  0  0  0  0  0  0  0  0
    2.8579   -2.4750    0.0000 S   0  0  0  0  0  0  0  0  0  0  0  0
    2.1434   -2.0625    0.0000 O   0  0  0  0  0  0  0  0  0  0  0  0
    3.5724   -2.8875    0.0000 O   0  0  0  0  0  0  0  0  0  0  0  0
    2.4454   -3.1895    0.0000 O   0  0  0  0  0  0  0  0  0  0  0  0
    5.3329   -2.4750    0.0000 O   0  0  0  0  0  0  0  0  0  0  0  0
    5.7454   -3.1895    0.0000 C   0  0  0  0  0  0  0  0  0  0  0  0
    6.5704   -3.1895    0.0000 C   0  0  0  0  0  0  0  0  0  0  0  0
    6.9829   -3.9039    0.0000 C   0  0  0  0  0  0  0  0  0  0  0  0
    6.5704   -4.6184    0.0000 C   0  0  0  0  0  0  0  0  0  0  0  0
    5.7454   -4.6184    0.0000 C   0  0  0  0  0  0  0  0  0  0  0  0
    5.3329   -3.9039    0.0000 C   0  0  0  0  0  0  0  0  0  0  0  0
  1  2  2  0  0  0  0
  2  3  1  0  0  0  0
  3  4  1  0  0  0  0
  4  5  1  0  0  0  0
  5  6  2  0  0  0  0
  5  7  1  0  0  0  0
  7  8  1  0  0  0  0
  8  9  1  0  0  0  0
  9 10  1  0  0  0  0
 10 11  1  0  0  0  0
 11 12  1  0  0  0  0
 12 13  1  0  0  0  0
  8 13  1  0  0  0  0
  4 14  1  0  0  0  0
 14 15  2  0  0  0  0
 14 16  2  0  0  0  0
 14 17  1  0  0  0  0
  2 18  1  0  0  0  0
 18 19  1  0  0  0  0
 19 20  1  0  0  0  0
 20 21  1  0  0  0  0
 21 22  1  0  0  0  0
 22 23  1  0  0  0  0
 23 24  1  0  0  0  0
 19 24  1  0  0  0  0
M  END
> <activity>
74.0

> <InChiKey>
QPSVFNQMURAADJ-UHFFFAOYSA-N

$$$$

  Mrv2220 08292413132D          

 10 12  0  0  0  0            999 V2000
   -1.2695    0.4125    0.0000 C   0  0  0  0  0  0  0  0  0  0  0  0
   -0.7846   -0.2549    0.0000 C   0  0  0  0  0  0  0  0  0  0  0  0
   -0.0000   -0.0000    0.0000 C   0  0  0  0  0  0  0  0  0  0  0  0
    0.7145   -0.4125    0.0000 C   0  0  0  0  0  0  0  0  0  0  0  0
    1.4289    0.0000    0.0000 C   0  0  0  0  0  0  0  0  0  0  0  0
    1.4289    0.8250    0.0000 C   0  0  0  0  0  0  0  0  0  0  0  0
    0.7145    1.2375    0.0000 C   0  0  0  0  0  0  0  0  0  0  0  0
    0.5082    0.4125    0.0000 C   0  0  0  0  0  0  0  0  0  0  0  0
    0.0000    0.8250    0.0000 C   0  0  0  0  0  0  0  0  0  0  0  0
   -0.7846    1.0799    0.0000 C   0  0  0  0  0  0  0  0  0  0  0  0
  1  2  2  0  0  0  0
  2  3  1  0  0  0  0
  3  4  1  0  0  0  0
  4  5  1  0  0  0  0
  5  6  2  0  0  0  0
  6  7  1  0  0  0  0
  7  8  1  0  0  0  0
  4  8  1  0  0  0  0
  7  9  1  0  0  0  0
  3  9  1  0  0  0  0
  9 10  1  0  0  0  0
  1 10  1  0  0  0  0
M  END
> <activity>
13.6

> <InChiKey>
HECLRDQVFMWTQS-UHFFFAOYSA-N

$$$$

  Mrv2220 08292413132D          

 17 19  0  0  0  0            999 V2000
    3.2789    2.0625    0.0000 O   0  0  0  0  0  0  0  0  0  0  0  0
    3.2789    1.2375    0.0000 C   0  0  0  0  0  0  0  0  0  0  0  0
    3.9934    0.8250    0.0000 N   0  0  0  0  0  0  0  0  0  0  0  0
    3.9934    0.0000    0.0000 C   0  0  0  0  0  0  0  0  0  0  0  0
    3.2789   -0.4125    0.0000 N   0  0  0  0  0  0  0  0  0  0  0  0
    2.5645    0.0000    0.0000 C   0  0  0  0  0  0  0  0  0  0  0  0
    2.5645    0.8250    0.0000 C   0  0  0  0  0  0  0  0  0  0  0  0
    1.7798    1.0799    0.0000 N   0  0  0  0  0  0  0  0  0  0  0  0
    1.2949    0.4125    0.0000 C   0  0  0  0  0  0  0  0  0  0  0  0
    1.7798   -0.2549    0.0000 N   0  0  0  0  0  0  0  0  0  0  0  0
    1.5249   -1.0396    0.0000 C   0  0  0  0  0  0  0  0  0  0  0  0
    2.0098   -1.7070    0.0000 C   0  0  0  0  0  0  0  0  0  0  0  0
    1.5249   -2.3744    0.0000 C   0  0  0  0  0  0  0  0  0  0  0  0
    0.7403   -2.1195    0.0000 C   0  0  0  0  0  0  0  0  0  0  0  0
    0.0728   -2.6044    0.0000 C   0  0  0  0  0  0  0  0  0  0  0  0
    0.1591   -3.4249    0.0000 O   0  0  0  0  0  0  0  0  0  0  0  0
    0.7403   -1.2945    0.0000 O   0  0  0  0  0  0  0  0  0  0  0  0
  1  2  2  0  0  0  0
  2  3  4  0  0  0  0
  3  4  4  0  0  0  0
  4  5  4  0  0  0  0
  5  6  4  0  0  0  0
  6  7  4  0  0  0  0
  2  7  4  0  0  0  0
  7  8  4  0  0  0  0
  8  9  4  0  0  0  0
  9 10  4  0  0  0  0
  6 10  4  0  0  0  0
 10 11  1  0  0  0  0
 11 12  1  0  0  0  0
 12 13  1  0  0  0  0
 13 14  1  0  0  0  0
 14 15  1  0  0  0  0
 15 16  1  0  0  0  0
 14 17  1  0  0  0  0
 11 17  1  0  0  0  0
M  STY  1   1 DAT
M  SAL   1  1   3
M  SDT   1 MRV_IMPLICIT_H                                        
M  SDD   1     0.5304   -0.4125    DR    ALL  0       0  
M  SED   1 IMPL_H1
M  END
> <activity>
1.7

> <InChiKey>
BXZVVICBKDXVGW-UHFFFAOYSA-N

$$$$

  Mrv2220 08292413132D          

 19 23  0  0  0  0            999 V2000
   -1.8179    1.6913    0.0000 Cl  0  0  0  0  0  0  0  0  0  0  0  0
   -1.3464    0.9075    0.0000 C   0  0  0  0  0  0  0  0  0  0  0  0
   -1.3464   -0.0825    0.0000 C   0  0  0  0  0  0  0  0  0  0  0  0
   -1.8179   -0.8663    0.0000 Cl  0  0  0  0  0  0  0  0  0  0  0  0
   -0.7145   -0.4125    0.0000 C   0  0  0  0  0  0  0  0  0  0  0  0
   -0.6000   -1.2723    0.0000 Cl  0  0  0  0  0  0  0  0  0  0  0  0
   -0.0000   -0.0000    0.0000 C   0  0  0  0  0  0  0  0  0  0  0  0
    0.7145   -0.4125    0.0000 C   0  0  0  0  0  0  0  0  0  0  0  0
    0.5082    0.4125    0.0000 C   0  0  0  0  0  0  0  0  0  0  0  0
    0.7145    1.2375    0.0000 C   0  0  0  0  0  0  0  0  0  0  0  0
    1.4289    0.8250    0.0000 C   0  0  0  0  0  0  0  0  0  0  0  0
    2.1434    0.4125    0.0000 O   0  0  0  0  0  0  0  0  0  0  0  0
    1.4289    0.0000    0.0000 C   0  0  0  0  0  0  0  0  0  0  0  0
    0.0000    0.8250    0.0000 C   0  0  0  0  0  0  0  0  0  0  0  0
   -0.7145    1.2375    0.0000 C   0  0  0  0  0  0  0  0  0  0  0  0
   -0.6000    2.0973    0.0000 Cl  0  0  0  0  0  0  0  0  0  0  0  0
   -0.9207    0.4125    0.0000 C   0  0  0  0  0  0  0  0  0  0  0  0
   -1.8748    0.7248    0.0000 Cl  0  0  0  0  0  0  0  0  0  0  0  0
   -1.8748    0.1002    0.0000 Cl  0  0  0  0  0  0  0  0  0  0  0  0
  1  2  1  0  0  0  0
  2  3  2  0  0  0  0
  3  4  1  0  0  0  0
  3  5  1  0  0  0  0
  5  6  1  0  0  0  0
  5  7  1  0  0  0  0
  7  8  1  0  0  0  0
  8  9  1  0  0  0  0
  9 10  1  0  0  0  0
 10 11  1  0  0  0  0
 11 12  1  0  0  0  0
 12 13  1  0  0  0  0
  8 13  1  0  0  0  0
 11 13  1  0  0  0  0
 10 14  1  0  0  0  0
  7 14  1  0  0  0  0
 14 15  1  0  0  0  0
  2 15  1  0  0  0  0
 15 16  1  0  0  0  0
 15 17  1  0  0  0  0
  5 17  1  0  0  0  0
 17 18  1  0  0  0  0
 17 19  1  0  0  0  0
M  END
> <activity>
25.9

> <InChiKey>
DFBKLUNHFCTMDC-UHFFFAOYSA-N

$$$$

  Mrv2220 08292413132D          

  7  6  0  0  0  0            999 V2000
    1.7605    1.8414    0.0000 O   0  0  0  0  0  0  0  0  0  0  0  0
    2.4750    1.4289    0.0000 C   0  0  0  0  0  0  0  0  0  0  0  0
    3.1895    1.8414    0.0000 C   0  0  0  0  0  0  0  0  0  0  0  0
    3.9039    1.4289    0.0000 N   0  0  0  0  0  0  0  0  0  0  0  0
    4.6184    1.8414    0.0000 C   0  0  0  0  0  0  0  0  0  0  0  0
    5.3329    1.4289    0.0000 C   0  0  0  0  0  0  0  0  0  0  0  0
    6.0474    1.8414    0.0000 O   0  0  0  0  0  0  0  0  0  0  0  0
  1  2  1  0  0  0  0
  2  3  1  0  0  0  0
  3  4  1  0  0  0  0
  4  5  1  0  0  0  0
  5  6  1  0  0  0  0
  6  7  1  0  0  0  0
M  END
> <activity>
14.6

> <InChiKey>
ZBCBWPMODOFKDW-UHFFFAOYSA-N

$$$$

  Mrv2220 08292413132D          

 12 11  0  0  0  0            999 V2000
    2.2836    2.1434    0.0000 C   0  0  0  0  0  0  0  0  0  0  0  0
    2.9980    2.5559    0.0000 C   0  0  0  0  0  0  0  0  0  0  0  0
    3.7125    2.1434    0.0000 O   0  0  0  0  0  0  0  0  0  0  0  0
    4.4270    2.5559    0.0000 C   0  0  0  0  0  0  0  0  0  0  0  0
    4.4270    3.3809    0.0000 O   0  0  0  0  0  0  0  0  0  0  0  0
    5.1414    2.1434    0.0000 C   0  0  0  0  0  0  0  0  0  0  0  0
    5.8559    2.5559    0.0000 C   0  0  0  0  0  0  0  0  0  0  0  0
    6.5704    2.1434    0.0000 C   0  0  0  0  0  0  0  0  0  0  0  0
    6.5704    1.3184    0.0000 O   0  0  0  0  0  0  0  0  0  0  0  0
    7.2849    2.5559    0.0000 O   0  0  0  0  0  0  0  0  0  0  0  0
    7.9993    2.1434    0.0000 C   0  0  0  0  0  0  0  0  0  0  0  0
    8.7138    2.5559    0.0000 C   0  0  0  0  0  0  0  0  0  0  0  0
  1  2  1  0  0  0  0
  2  3  1  0  0  0  0
  3  4  1  0  0  0  0
  4  5  2  0  0  0  0
  4  6  1  0  0  0  0
  6  7  1  0  0  0  0
  7  8  1  0  0  0  0
  8  9  2  0  0  0  0
  8 10  1  0  0  0  0
 10 11  1  0  0  0  0
 11 12  1  0  0  0  0
M  END
> <activity>
6.4

> <InChiKey>
DKMROQRQHGEIOW-UHFFFAOYSA-N

$$$$

  Mrv2220 08292413132D          

  8  7  0  0  0  0            999 V2000
    1.7605    1.8414    0.0000 C   0  0  0  0  0  0  0  0  0  0  0  0
    2.4750    1.4289    0.0000 C   0  0  0  0  0  0  0  0  0  0  0  0
    3.1895    1.8414    0.0000 O   0  0  0  0  0  0  0  0  0  0  0  0
    3.9039    1.4289    0.0000 P   0  0  0  0  0  0  0  0  0  0  0  0
    3.9039    0.6039    0.0000 O   0  0  0  0  0  0  0  0  0  0  0  0
    4.6184    1.8414    0.0000 O   0  0  0  0  0  0  0  0  0  0  0  0
    5.3329    1.4289    0.0000 C   0  0  0  0  0  0  0  0  0  0  0  0
    6.0474    1.8414    0.0000 C   0  0  0  0  0  0  0  0  0  0  0  0
  1  2  1  0  0  0  0
  2  3  1  0  0  0  0
  3  4  1  0  0  0  0
  4  5  1  0  0  0  0
  4  6  1  0  0  0  0
  6  7  1  0  0  0  0
  7  8  1  0  0  0  0
M  END
> <activity>
6.4

> <InChiKey>
SULWMEGSVQCTSK-UHFFFAOYSA-N

$$$$

  Mrv2220 08292413132D          

 16 16  0  0  0  0            999 V2000
    2.1434    3.7125    0.0000 C   0  0  0  0  0  0  0  0  0  0  0  0
    1.4289    3.3000    0.0000 C   0  0  0  0  0  0  0  0  0  0  0  0
    1.4289    2.4750    0.0000 O   0  0  0  0  0  0  0  0  0  0  0  0
    0.7145    2.0625    0.0000 C   0  0  0  0  0  0  0  0  0  0  0  0
    0.0000    2.4750    0.0000 O   0  0  0  0  0  0  0  0  0  0  0  0
    0.7145    1.2375    0.0000 C   0  0  0  0  0  0  0  0  0  0  0  0
    1.4289    0.8250    0.0000 C   0  0  0  0  0  0  0  0  0  0  0  0
    1.4289   -0.0000    0.0000 C   0  0  0  0  0  0  0  0  0  0  0  0
    0.7145   -0.4125    0.0000 C   0  0  0  0  0  0  0  0  0  0  0  0
    0.0000    0.0000    0.0000 C   0  0  0  0  0  0  0  0  0  0  0  0
    0.0000    0.8250    0.0000 C   0  0  0  0  0  0  0  0  0  0  0  0
   -0.7145    1.2375    0.0000 C   0  0  0  0  0  0  0  0  0  0  0  0
   -0.7145    2.0625    0.0000 O   0  0  0  0  0  0  0  0  0  0  0  0
   -1.4289    0.8250    0.0000 O   0  0  0  0  0  0  0  0  0  0  0  0
   -2.1434    1.2375    0.0000 C   0  0  0  0  0  0  0  0  0  0  0  0
   -2.8579    0.8250    0.0000 C   0  0  0  0  0  0  0  0  0  0  0  0
  1  2  1  0  0  0  0
  2  3  1  0  0  0  0
  3  4  1  0  0  0  0
  4  5  2  0  0  0  0
  4  6  1  0  0  0  0
  6  7  4  0  0  0  0
  7  8  4  0  0  0  0
  8  9  4  0  0  0  0
  9 10  4  0  0  0  0
 10 11  4  0  0  0  0
  6 11  4  0  0  0  0
 11 12  1  0  0  0  0
 12 13  2  0  0  0  0
 12 14  1  0  0  0  0
 14 15  1  0  0  0  0
 15 16  1  0  0  0  0
M  END
> <activity>
44.1

> <InChiKey>
FLKPEMZONWLCSK-UHFFFAOYSA-N

$$$$

  Mrv2220 08292413132D          

  9  8  0  0  0  0            999 V2000
    4.1250   -1.4289    0.0000 C   0  0  0  0  0  0  0  0  0  0  0  0
    3.3000   -1.4289    0.0000 C   0  0  0  0  0  0  0  0  0  0  0  0
    2.8875   -0.7145    0.0000 O   0  0  0  0  0  0  0  0  0  0  0  0
    2.0625   -0.7145    0.0000 S   0  0  0  0  0  0  0  0  0  0  0  0
    2.0625    0.1105    0.0000 O   0  0  0  0  0  0  0  0  0  0  0  0
    2.0625   -1.5395    0.0000 O   0  0  0  0  0  0  0  0  0  0  0  0
    1.2375   -0.7145    0.0000 O   0  0  0  0  0  0  0  0  0  0  0  0
    0.8250    0.0000    0.0000 C   0  0  0  0  0  0  0  0  0  0  0  0
    0.0000    0.0000    0.0000 C   0  0  0  0  0  0  0  0  0  0  0  0
  1  2  1  0  0  0  0
  2  3  1  0  0  0  0
  3  4  1  0  0  0  0
  4  5  2  0  0  0  0
  4  6  2  0  0  0  0
  4  7  1  0  0  0  0
  7  8  1  0  0  0  0
  8  9  1  0  0  0  0
M  END
> <activity>
-4.0

> <InChiKey>
DENRZWYUOJLTMF-UHFFFAOYSA-N

$$$$

  Mrv2220 08292413132D          

 20 21  0  0  0  0            999 V2000
    2.1434   -1.2375    0.0000 C   0  0  0  0  0  0  0  0  0  0  0  0
    1.4289   -1.6500    0.0000 C   0  0  0  0  0  0  0  0  0  0  0  0
    0.7145   -1.2375    0.0000 C   0  0  0  0  0  0  0  0  0  0  0  0
    0.0000   -1.6500    0.0000 C   0  0  0  0  0  0  0  0  0  0  0  0
   -0.7145   -1.2375    0.0000 C   0  0  0  0  0  0  0  0  0  0  0  0
   -1.4289   -1.6500    0.0000 C   0  0  0  0  0  0  0  0  0  0  0  0
    0.0000   -2.4750    0.0000 C   0  0  0  0  0  0  0  0  0  0  0  0
    0.7145   -2.8875    0.0000 C   0  0  0  0  0  0  0  0  0  0  0  0
    0.7145   -3.7125    0.0000 C   0  0  0  0  0  0  0  0  0  0  0  0
    0.0000   -4.1250    0.0000 C   0  0  0  0  0  0  0  0  0  0  0  0
    0.0000   -4.9500    0.0000 O   0  0  0  0  0  0  0  0  0  0  0  0
   -0.7145   -3.7125    0.0000 C   0  0  0  0  0  0  0  0  0  0  0  0
   -0.7145   -2.8875    0.0000 C   0  0  0  0  0  0  0  0  0  0  0  0
    0.7145   -0.4125    0.0000 C   0  0  0  0  0  0  0  0  0  0  0  0
    0.0000    0.0000    0.0000 C   0  0  0  0  0  0  0  0  0  0  0  0
    0.0000    0.8250    0.0000 C   0  0  0  0  0  0  0  0  0  0  0  0
    0.7145    1.2375    0.0000 C   0  0  0  0  0  0  0  0  0  0  0  0
    0.7145    2.0625    0.0000 O   0  0  0  0  0  0  0  0  0  0  0  0
    1.4289    0.8250    0.0000 C   0  0  0  0  0  0  0  0  0  0  0  0
    1.4289   -0.0000    0.0000 C   0  0  0  0  0  0  0  0  0  0  0  0
  1  2  1  0  0  0  0
  3  2  1  4  0  0  0
  3  4  2  0  0  0  0
  4  5  1  0  0  0  0
  5  6  1  0  0  0  0
  4  7  1  0  0  0  0
  7  8  4  0  0  0  0
  8  9  4  0  0  0  0
  9 10  4  0  0  0  0
 10 11  1  0  0  0  0
 10 12  4  0  0  0  0
 12 13  4  0  0  0  0
  7 13  4  0  0  0  0
  3 14  1  0  0  0  0
 14 15  4  0  0  0  0
 15 16  4  0  0  0  0
 16 17  4  0  0  0  0
 17 18  1  0  0  0  0
 17 19  4  0  0  0  0
 19 20  4  0  0  0  0
 14 20  4  0  0  0  0
M  END
> <activity>
103.2

> <InChiKey>
RGLYKWWBQGJZGM-UHFFFAOYSA-N

$$$$

  Mrv2220 08292413132D          

 19 21  0  0  0  0            999 V2000
    0.7145   -0.4125    0.0000 C   0  0  0  0  0  0  0  0  0  0  0  0
    0.7145   -1.2375    0.0000 N   0  0  0  0  0  0  0  0  0  0  0  0
    1.3819   -1.7224    0.0000 C   0  0  0  0  0  0  0  0  0  0  0  0
    2.1665   -1.4675    0.0000 C   0  0  0  0  0  0  0  0  0  0  0  0
    2.3381   -0.6605    0.0000 C   0  0  0  0  0  0  0  0  0  0  0  0
    3.1227   -0.4056    0.0000 C   0  0  0  0  0  0  0  0  0  0  0  0
    3.7358   -0.9576    0.0000 C   0  0  0  0  0  0  0  0  0  0  0  0
    3.5642   -1.7646    0.0000 C   0  0  0  0  0  0  0  0  0  0  0  0
    2.7796   -2.0195    0.0000 C   0  0  0  0  0  0  0  0  0  0  0  0
    1.1270   -2.5070    0.0000 C   0  0  0  0  0  0  0  0  0  0  0  0
    0.3020   -2.5070    0.0000 C   0  0  0  0  0  0  0  0  0  0  0  0
   -0.1830   -3.1745    0.0000 C   0  0  0  0  0  0  0  0  0  0  0  0
    0.1526   -3.9282    0.0000 C   0  0  0  0  0  0  0  0  0  0  0  0
   -0.3323   -4.5956    0.0000 C   0  0  0  0  0  0  0  0  0  0  0  0
   -1.1528   -4.5094    0.0000 C   0  0  0  0  0  0  0  0  0  0  0  0
   -1.4884   -3.7557    0.0000 C   0  0  0  0  0  0  0  0  0  0  0  0
   -1.0034   -3.0882    0.0000 C   0  0  0  0  0  0  0  0  0  0  0  0
    0.0470   -1.7224    0.0000 N   0  3  0  0  0  0  0  0  0  0  0  0
   -0.7376   -1.4675    0.0000 C   0  0  0  0  0  0  0  0  0  0  0  0
  1  2  1  0  0  0  0
  2  3  4  0  0  0  0
  3  4  1  0  0  0  0
  4  5  4  0  0  0  0
  5  6  4  0  0  0  0
  6  7  4  0  0  0  0
  7  8  4  0  0  0  0
  8  9  4  0  0  0  0
  4  9  4  0  0  0  0
  3 10  4  0  0  0  0
 10 11  4  0  0  0  0
 11 12  1  0  0  0  0
 12 13  4  0  0  0  0
 13 14  4  0  0  0  0
 14 15  4  0  0  0  0
 15 16  4  0  0  0  0
 16 17  4  0  0  0  0
 12 17  4  0  0  0  0
 11 18  4  0  0  0  0
  2 18  4  0  0  0  0
 18 19  1  0  0  0  0
M  CHG  1  18   1
M  END
> <activity>
91.0

> <InChiKey>
LBGPXIPGGRQBJW-UHFFFAOYSA-N

$$$$

  Mrv2220 08292413132D          

 21 22  0  0  0  0            999 V2000
    2.1434   -3.7125    0.0000 O   0  0  0  0  0  0  0  0  0  0  0  0
    2.1434   -2.8875    0.0000 C   0  0  0  0  0  0  0  0  0  0  0  0
    1.4289   -2.4750    0.0000 N   0  0  0  0  0  0  0  0  0  0  0  0
    0.7145   -2.8875    0.0000 C   0  0  0  0  0  0  0  0  0  0  0  0
    0.7145   -3.7125    0.0000 O   0  0  0  0  0  0  0  0  0  0  0  0
    0.0000   -2.4750    0.0000 C   0  0  0  0  0  0  0  0  0  0  0  0
   -0.7145   -2.8875    0.0000 C   0  0  0  0  0  0  0  0  0  0  0  0
   -0.7145   -3.7125    0.0000 F   0  0  0  0  0  0  0  0  0  0  0  0
   -1.4289   -2.4750    0.0000 C   0  0  0  0  0  0  0  0  0  0  0  0
   -1.4289   -1.6500    0.0000 C   0  0  0  0  0  0  0  0  0  0  0  0
   -0.7145   -1.2375    0.0000 C   0  0  0  0  0  0  0  0  0  0  0  0
    0.0000   -1.6500    0.0000 C   0  0  0  0  0  0  0  0  0  0  0  0
    0.7145   -1.2375    0.0000 F   0  0  0  0  0  0  0  0  0  0  0  0
    2.8579   -2.4750    0.0000 N   0  0  0  0  0  0  0  0  0  0  0  0
    3.5724   -2.8875    0.0000 C   0  0  0  0  0  0  0  0  0  0  0  0
    4.2868   -2.4750    0.0000 C   0  0  0  0  0  0  0  0  0  0  0  0
    5.0013   -2.8875    0.0000 C   0  0  0  0  0  0  0  0  0  0  0  0
    5.0013   -3.7125    0.0000 C   0  0  0  0  0  0  0  0  0  0  0  0
    5.7158   -4.1250    0.0000 Cl  0  0  0  0  0  0  0  0  0  0  0  0
    4.2868   -4.1250    0.0000 C   0  0  0  0  0  0  0  0  0  0  0  0
    3.5724   -3.7125    0.0000 C   0  0  0  0  0  0  0  0  0  0  0  0
  1  2  2  0  0  0  0
  2  3  1  0  0  0  0
  3  4  1  0  0  0  0
  4  5  2  0  0  0  0
  4  6  1  0  0  0  0
  6  7  4  0  0  0  0
  7  8  1  0  0  0  0
  7  9  4  0  0  0  0
  9 10  4  0  0  0  0
 10 11  4  0  0  0  0
 11 12  4  0  0  0  0
  6 12  4  0  0  0  0
 12 13  1  0  0  0  0
  2 14  1  0  0  0  0
 14 15  1  0  0  0  0
 15 16  4  0  0  0  0
 16 17  4  0  0  0  0
 17 18  4  0  0  0  0
 18 19  1  0  0  0  0
 18 20  4  0  0  0  0
 20 21  4  0  0  0  0
 15 21  4  0  0  0  0
M  END
> <activity>
-8.0

> <InChiKey>
QQQYTWIFVNKMRW-UHFFFAOYSA-N

$$$$

  Mrv2220 08292413132D          

 25 27  0  0  0  0            999 V2000
    0.0000    2.4750    0.0000 C   0  0  0  0  0  0  0  0  0  0  0  0
    0.7145    2.0625    0.0000 O   0  0  0  0  0  0  0  0  0  0  0  0
    0.7145    1.2375    0.0000 C   0  0  0  0  0  0  0  0  0  0  0  0
    1.4289    0.8250    0.0000 C   0  0  0  0  0  0  0  0  0  0  0  0
    1.4289   -0.0000    0.0000 C   0  0  0  0  0  0  0  0  0  0  0  0
    0.7145   -0.4125    0.0000 C   0  0  0  0  0  0  0  0  0  0  0  0
    0.7145   -1.2375    0.0000 N   0  0  0  0  0  0  0  0  0  0  0  0
    1.3819   -1.7224    0.0000 N   0  0  0  0  0  0  0  0  0  0  0  0
    1.1270   -2.5070    0.0000 C   0  0  0  0  0  0  0  0  0  0  0  0
    1.6119   -3.1745    0.0000 C   0  0  0  0  0  0  0  0  0  0  0  0
    1.2763   -3.9282    0.0000 F   0  0  0  0  0  0  0  0  0  0  0  0
    2.4324   -3.0882    0.0000 F   0  0  0  0  0  0  0  0  0  0  0  0
    0.3020   -2.5070    0.0000 C   0  0  0  0  0  0  0  0  0  0  0  0
    0.0470   -1.7224    0.0000 C   0  0  0  0  0  0  0  0  0  0  0  0
   -0.7376   -1.4675    0.0000 C   0  0  0  0  0  0  0  0  0  0  0  0
   -1.3507   -2.0195    0.0000 C   0  0  0  0  0  0  0  0  0  0  0  0
   -2.1353   -1.7646    0.0000 C   0  0  0  0  0  0  0  0  0  0  0  0
   -2.3068   -0.9576    0.0000 C   0  0  0  0  0  0  0  0  0  0  0  0
   -3.0915   -0.7027    0.0000 S   0  3  0  0  0  0  0  0  0  0  0  0
   -3.7045   -1.2547    0.0000 C   0  0  0  0  0  0  0  0  0  0  0  0
   -3.2630    0.1043    0.0000 O   0  5  0  0  0  0  0  0  0  0  0  0
   -1.6937   -0.4056    0.0000 C   0  0  0  0  0  0  0  0  0  0  0  0
   -0.9091   -0.6605    0.0000 C   0  0  0  0  0  0  0  0  0  0  0  0
    0.0000   -0.0000    0.0000 C   0  0  0  0  0  0  0  0  0  0  0  0
    0.0000    0.8250    0.0000 C   0  0  0  0  0  0  0  0  0  0  0  0
  1  2  1  0  0  0  0
  2  3  1  0  0  0  0
  3  4  4  0  0  0  0
  4  5  4  0  0  0  0
  5  6  4  0  0  0  0
  6  7  1  0  0  0  0
  7  8  4  0  0  0  0
  8  9  4  0  0  0  0
  9 10  1  0  0  0  0
 10 11  1  0  0  0  0
 10 12  1  0  0  0  0
  9 13  4  0  0  0  0
 13 14  4  0  0  0  0
  7 14  4  0  0  0  0
 14 15  1  0  0  0  0
 15 16  4  0  0  0  0
 16 17  4  0  0  0  0
 17 18  4  0  0  0  0
 18 19  1  0  0  0  0
 19 20  1  0  0  0  0
 19 21  1  0  0  0  0
 18 22  4  0  0  0  0
 22 23  4  0  0  0  0
 15 23  4  0  0  0  0
  6 24  4  0  0  0  0
 24 25  4  0  0  0  0
  3 25  4  0  0  0  0
M  CHG  2  19   1  21  -1
M  END
> <activity>
33.1

> <InChiKey>
JJAPPCJXQFKMJL-UHFFFAOYSA-N

$$$$

  Mrv2220 08292413132D          

 55 62  0  0  0  0            999 V2000
    3.5693    7.3004    0.0000 C   0  0  0  0  0  0  0  0  0  0  0  0
    4.1011    6.6697    0.0000 C   0  0  0  0  0  0  0  0  0  0  0  0
    4.9132    6.8149    0.0000 O   0  0  0  0  0  0  0  0  0  0  0  0
    5.4450    6.1842    0.0000 C   0  0  0  0  0  0  0  0  0  0  0  0
    6.2572    6.3295    0.0000 O   0  0  0  0  0  0  0  0  0  0  0  0
    6.7890    5.6987    0.0000 C   0  0  0  0  0  0  0  0  0  0  0  0
    7.6011    5.8440    0.0000 C   0  0  0  0  0  0  0  0  0  0  0  0
    7.8814    6.6199    0.0000 O   0  0  0  0  0  0  0  0  0  0  0  0
    8.1329    5.2133    0.0000 C   0  0  0  0  0  0  0  0  0  0  0  0
    7.8526    4.4373    0.0000 C   0  0  0  0  0  0  0  0  0  0  0  0
    8.3844    3.8066    0.0000 O   0  0  0  0  0  0  0  0  0  0  0  0
    8.1041    3.0307    0.0000 C   0  0  0  0  0  0  0  0  0  0  0  0
    8.6360    2.4000    0.0000 C   0  0  0  0  0  0  0  0  0  0  0  0
    9.4481    2.5452    0.0000 O   0  0  0  0  0  0  0  0  0  0  0  0
    8.3557    1.6241    0.0000 C   0  0  0  0  0  0  0  0  0  0  0  0
    7.5435    1.4789    0.0000 C   0  0  0  0  0  0  0  0  0  0  0  0
    7.2632    0.7029    0.0000 O   0  0  0  0  0  0  0  0  0  0  0  0
    6.4511    0.5577    0.0000 C   0  0  0  0  0  0  0  0  0  0  0  0
    6.1708   -0.2182    0.0000 C   0  0  0  0  0  0  0  0  0  0  0  0
    5.3587   -0.3634    0.0000 C   0  0  0  0  0  0  0  0  0  0  0  0
    4.8269    0.2673    0.0000 C   0  0  0  0  0  0  0  0  0  0  0  0
    4.5466   -0.5086    0.0000 C   0  0  0  0  0  0  0  0  0  0  0  0
    5.1072    1.0432    0.0000 C   0  0  0  0  0  0  0  0  0  0  0  0
    4.5754    1.6739    0.0000 C   0  0  0  0  0  0  0  0  0  0  0  0
    3.7633    1.5287    0.0000 C   0  0  0  0  0  0  0  0  0  0  0  0
    3.4830    0.7528    0.0000 C   0  0  0  0  0  0  0  0  0  0  0  0
    4.0148    0.1221    0.0000 C   0  0  0  0  0  0  0  0  0  0  0  0
    3.7345   -0.6539    0.0000 C   0  0  0  0  0  0  0  0  0  0  0  0
    2.9224   -0.7991    0.0000 C   0  0  0  0  0  0  0  0  0  0  0  0
    2.6421   -1.5750    0.0000 O   0  0  0  0  0  0  0  0  0  0  0  0
    2.3905   -0.1684    0.0000 C   0  0  0  0  0  0  0  0  0  0  0  0
    2.0307   -0.9107    0.0000 C   0  0  0  0  0  0  0  0  0  0  0  0
    1.5660   -0.1416    0.0000 C   0  0  0  0  0  0  0  0  0  0  0  0
    1.0596   -0.7929    0.0000 C   0  0  0  0  0  0  0  0  0  0  0  0
    1.2889   -1.5854    0.0000 C   0  0  0  0  0  0  0  0  0  0  0  0
    0.6061   -2.0484    0.0000 C   0  0  0  0  0  0  0  0  0  0  0  0
    0.5793   -2.8729    0.0000 O   0  0  0  0  0  0  0  0  0  0  0  0
   -0.0452   -1.5420    0.0000 O   0  0  0  0  0  0  0  0  0  0  0  0
    0.2351   -0.7661    0.0000 C   0  0  0  0  0  0  0  0  0  0  0  0
    1.3367    0.6509    0.0000 C   0  0  0  0  0  0  0  0  0  0  0  0
    2.0195    1.1139    0.0000 C   0  0  0  0  0  0  0  0  0  0  0  0
    2.6708    0.6076    0.0000 C   0  0  0  0  0  0  0  0  0  0  0  0
    2.8685    1.4085    0.0000 O   0  0  0  0  0  0  0  0  0  0  0  0
    5.9193    1.1884    0.0000 C   0  0  0  0  0  0  0  0  0  0  0  0
    7.0117    2.1096    0.0000 O   0  0  0  0  0  0  0  0  0  0  0  0
    7.2920    2.8855    0.0000 C   0  0  0  0  0  0  0  0  0  0  0  0
    6.7602    3.5162    0.0000 C   0  0  0  0  0  0  0  0  0  0  0  0
    7.0405    4.2921    0.0000 O   0  0  0  0  0  0  0  0  0  0  0  0
    6.5087    4.9228    0.0000 C   0  0  0  0  0  0  0  0  0  0  0  0
    5.6966    4.7776    0.0000 C   0  0  0  0  0  0  0  0  0  0  0  0
    5.1647    5.4083    0.0000 C   0  0  0  0  0  0  0  0  0  0  0  0
    4.3526    5.2631    0.0000 C   0  0  0  0  0  0  0  0  0  0  0  0
    4.0723    4.4872    0.0000 O   0  0  0  0  0  0  0  0  0  0  0  0
    3.8208    5.8938    0.0000 C   0  0  0  0  0  0  0  0  0  0  0  0
    3.0087    5.7486    0.0000 O   0  0  0  0  0  0  0  0  0  0  0  0
  1  2  1  0  0  0  0
  2  3  1  0  0  0  0
  3  4  1  0  0  0  0
  4  5  1  0  0  0  0
  5  6  1  0  0  0  0
  6  7  1  0  0  0  0
  7  8  1  0  0  0  0
  7  9  1  0  0  0  0
  9 10  1  0  0  0  0
 10 11  1  0  0  0  0
 11 12  1  0  0  0  0
 12 13  1  0  0  0  0
 13 14  1  0  0  0  0
 13 15  1  0  0  0  0
 15 16  1  0  0  0  0
 16 17  1  0  0  0  0
 17 18  1  0  0  0  0
 18 19  1  0  0  0  0
 19 20  1  0  0  0  0
 20 21  1  0  0  0  0
 21 22  1  0  0  0  0
 21 23  1  0  0  0  0
 23 24  1  0  0  0  0
 24 25  1  0  0  0  0
 25 26  1  0  0  0  0
 26 27  1  0  0  0  0
 21 27  1  0  0  0  0
 27 28  1  0  0  0  0
 28 29  1  0  0  0  0
 29 30  1  0  0  0  0
 29 31  1  0  0  0  0
 31 32  1  0  0  0  0
 31 33  1  0  0  0  0
 33 34  1  0  0  0  0
 34 35  2  0  0  0  0
 35 36  1  0  0  0  0
 36 37  2  0  0  0  0
 36 38  1  0  0  0  0
 38 39  1  0  0  0  0
 34 39  1  0  0  0  0
 33 40  1  0  0  0  0
 40 41  1  0  0  0  0
 41 42  1  0  0  0  0
 26 42  1  0  0  0  0
 31 42  1  0  0  0  0
 42 43  1  0  0  0  0
 23 44  1  0  0  0  0
 18 44  1  0  0  0  0
 16 45  1  0  0  0  0
 45 46  1  0  0  0  0
 12 46  1  0  0  0  0
 46 47  1  0  0  0  0
 10 48  1  0  0  0  0
 48 49  1  0  0  0  0
  6 49  1  0  0  0  0
 49 50  1  0  0  0  0
  4 51  1  0  0  0  0
 51 52  1  0  0  0  0
 52 53  1  0  0  0  0
 52 54  1  0  0  0  0
  2 54  1  0  0  0  0
 54 55  1  0  0  0  0
M  END
> <activity>
13.1

> <InChiKey>
LTMHDMANZUZIPE-UHFFFAOYSA-N

$$$$

  Mrv2220 08292413132D          

 22 21  0  0  0  0            999 V2000
    8.4711    5.7158    0.0000 C   0  0  0  0  0  0  0  0  0  0  0  0
    9.1855    6.1283    0.0000 C   0  0  0  0  0  0  0  0  0  0  0  0
    9.9000    5.7158    0.0000 C   0  0  0  0  0  0  0  0  0  0  0  0
   10.6145    6.1283    0.0000 C   0  0  0  0  0  0  0  0  0  0  0  0
   11.3289    5.7158    0.0000 C   0  0  0  0  0  0  0  0  0  0  0  0
   12.0434    6.1283    0.0000 C   0  0  0  0  0  0  0  0  0  0  0  0
   12.7579    5.7158    0.0000 O   0  0  0  0  0  0  0  0  0  0  0  0
   13.4724    6.1283    0.0000 C   0  0  0  0  0  0  0  0  0  0  0  0
   13.4724    6.9533    0.0000 O   0  0  0  0  0  0  0  0  0  0  0  0
   14.1868    5.7158    0.0000 C   0  0  0  0  0  0  0  0  0  0  0  0
   14.9013    6.1283    0.0000 C   0  0  0  0  0  0  0  0  0  0  0  0
   15.6158    5.7158    0.0000 C   0  0  0  0  0  0  0  0  0  0  0  0
   16.3302    6.1283    0.0000 C   0  0  0  0  0  0  0  0  0  0  0  0
   17.0447    5.7158    0.0000 C   0  0  0  0  0  0  0  0  0  0  0  0
   17.0447    4.8908    0.0000 O   0  0  0  0  0  0  0  0  0  0  0  0
   17.7592    6.1283    0.0000 O   0  0  0  0  0  0  0  0  0  0  0  0
   18.4737    5.7158    0.0000 C   0  0  0  0  0  0  0  0  0  0  0  0
   19.1881    6.1283    0.0000 C   0  0  0  0  0  0  0  0  0  0  0  0
   19.9026    5.7158    0.0000 C   0  0  0  0  0  0  0  0  0  0  0  0
   20.6171    6.1283    0.0000 C   0  0  0  0  0  0  0  0  0  0  0  0
   21.3315    5.7158    0.0000 C   0  0  0  0  0  0  0  0  0  0  0  0
   22.0460    6.1283    0.0000 C   0  0  0  0  0  0  0  0  0  0  0  0
  1  2  1  0  0  0  0
  2  3  1  0  0  0  0
  3  4  1  0  0  0  0
  4  5  1  0  0  0  0
  5  6  1  0  0  0  0
  6  7  1  0  0  0  0
  7  8  1  0  0  0  0
  8  9  2  0  0  0  0
  8 10  1  0  0  0  0
 10 11  1  0  0  0  0
 11 12  1  0  0  0  0
 12 13  1  0  0  0  0
 13 14  1  0  0  0  0
 14 15  2  0  0  0  0
 14 16  1  0  0  0  0
 16 17  1  0  0  0  0
 17 18  1  0  0  0  0
 18 19  1  0  0  0  0
 19 20  1  0  0  0  0
 20 21  1  0  0  0  0
 21 22  1  0  0  0  0
M  END
> <activity>
1.0

> <InChiKey>
HHECSPXBQJHZAF-UHFFFAOYSA-N

$$$$

  Mrv2220 08292413132D          

 24 24  0  0  0  0            999 V2000
   -2.1434   -5.3625    0.0000 C   0  0  0  0  0  0  0  0  0  0  0  0
   -1.4289   -4.9500    0.0000 C   0  0  0  0  0  0  0  0  0  0  0  0
   -1.4289   -4.1250    0.0000 C   0  0  0  0  0  0  0  0  0  0  0  0
   -0.7145   -3.7125    0.0000 C   0  0  0  0  0  0  0  0  0  0  0  0
   -0.7145   -2.8875    0.0000 C   0  0  0  0  0  0  0  0  0  0  0  0
    0.0000   -2.4750    0.0000 C   0  0  0  0  0  0  0  0  0  0  0  0
    0.0000   -1.6500    0.0000 O   0  0  0  0  0  0  0  0  0  0  0  0
    0.7145   -1.2375    0.0000 C   0  0  0  0  0  0  0  0  0  0  0  0
    1.4289   -1.6500    0.0000 O   0  0  0  0  0  0  0  0  0  0  0  0
    0.7145   -0.4125    0.0000 C   0  0  0  0  0  0  0  0  0  0  0  0
    0.0000    0.0000    0.0000 C   0  0  0  0  0  0  0  0  0  0  0  0
    0.0000    0.8250    0.0000 C   0  0  0  0  0  0  0  0  0  0  0  0
    0.7145    1.2375    0.0000 C   0  0  0  0  0  0  0  0  0  0  0  0
    1.4289    0.8250    0.0000 C   0  0  0  0  0  0  0  0  0  0  0  0
    1.4289    0.0000    0.0000 C   0  0  0  0  0  0  0  0  0  0  0  0
    2.1434   -0.4125    0.0000 C   0  0  0  0  0  0  0  0  0  0  0  0
    2.1434   -1.2375    0.0000 O   0  0  0  0  0  0  0  0  0  0  0  0
    2.8579    0.0000    0.0000 O   0  0  0  0  0  0  0  0  0  0  0  0
    3.5724   -0.4125    0.0000 C   0  0  0  0  0  0  0  0  0  0  0  0
    4.2868    0.0000    0.0000 C   0  0  0  0  0  0  0  0  0  0  0  0
    5.0013   -0.4125    0.0000 C   0  0  0  0  0  0  0  0  0  0  0  0
    5.7158    0.0000    0.0000 C   0  0  0  0  0  0  0  0  0  0  0  0
    6.4302   -0.4125    0.0000 C   0  0  0  0  0  0  0  0  0  0  0  0
    7.1447    0.0000    0.0000 C   0  0  0  0  0  0  0  0  0  0  0  0
  1  2  1  0  0  0  0
  2  3  1  0  0  0  0
  3  4  1  0  0  0  0
  4  5  1  0  0  0  0
  5  6  1  0  0  0  0
  6  7  1  0  0  0  0
  7  8  1  0  0  0  0
  8  9  2  0  0  0  0
  8 10  1  0  0  0  0
 10 11  4  0  0  0  0
 11 12  4  0  0  0  0
 12 13  4  0  0  0  0
 13 14  4  0  0  0  0
 14 15  4  0  0  0  0
 10 15  4  0  0  0  0
 15 16  1  0  0  0  0
 16 17  2  0  0  0  0
 16 18  1  0  0  0  0
 18 19  1  0  0  0  0
 19 20  1  0  0  0  0
 20 21  1  0  0  0  0
 21 22  1  0  0  0  0
 22 23  1  0  0  0  0
 23 24  1  0  0  0  0
M  END
> <activity>
17.7

> <InChiKey>
KCXZNSGUUQJJTR-UHFFFAOYSA-N

$$$$

  Mrv2220 08292413132D          

 11 10  0  0  0  0            999 V2000
   -1.3184   -2.0625    0.0000 C   0  0  0  0  0  0  0  0  0  0  0  0
   -0.6039   -2.4750    0.0000 C   0  0  0  0  0  0  0  0  0  0  0  0
   -0.6039   -3.3000    0.0000 C   0  0  0  0  0  0  0  0  0  0  0  0
   -1.3184   -3.7125    0.0000 C   0  0  0  0  0  0  0  0  0  0  0  0
    0.1105   -2.0625    0.0000 C   0  0  0  0  0  0  0  0  0  0  0  0
    0.1105   -1.2375    0.0000 C   0  0  0  0  0  0  0  0  0  0  0  0
    0.8250   -0.8250    0.0000 C   0  0  0  0  0  0  0  0  0  0  0  0
    0.8250    0.0000    0.0000 C   0  0  0  0  0  0  0  0  0  0  0  0
    0.8250    0.8250    0.0000 C   0  0  0  0  0  0  0  0  0  0  0  0
    1.6500   -0.0000    0.0000 C   0  0  0  0  0  0  0  0  0  0  0  0
    0.0000    0.0000    0.0000 O   0  0  0  0  0  0  0  0  0  0  0  0
  1  2  2  0  0  0  0
  2  3  1  0  0  0  0
  3  4  1  0  0  0  0
  2  5  1  0  0  0  0
  5  6  1  0  0  0  0
  6  7  1  0  0  0  0
  7  8  1  0  0  0  0
  8  9  1  0  0  0  0
  8 10  1  0  0  0  0
  8 11  1  0  0  0  0
M  END
> <activity>
28.9

> <InChiKey>
VOATZOQREKBJMT-UHFFFAOYSA-N

$$$$

  Mrv2220 08292413132D          

 18 17  0  0  0  0            999 V2000
    4.7586    3.5724    0.0000 C   0  0  0  0  0  0  0  0  0  0  0  0
    5.4730    3.9849    0.0000 C   0  0  0  0  0  0  0  0  0  0  0  0
    5.4730    4.8099    0.0000 C   0  0  0  0  0  0  0  0  0  0  0  0
    6.1875    3.5724    0.0000 C   0  0  0  0  0  0  0  0  0  0  0  0
    6.9020    3.9849    0.0000 O   0  0  0  0  0  0  0  0  0  0  0  0
    7.6164    3.5724    0.0000 C   0  0  0  0  0  0  0  0  0  0  0  0
    7.6164    2.7474    0.0000 O   0  0  0  0  0  0  0  0  0  0  0  0
    8.3309    3.9849    0.0000 C   0  0  0  0  0  0  0  0  0  0  0  0
    9.0454    3.5724    0.0000 C   0  0  0  0  0  0  0  0  0  0  0  0
    9.7599    3.9849    0.0000 C   0  0  0  0  0  0  0  0  0  0  0  0
   10.4743    3.5724    0.0000 C   0  0  0  0  0  0  0  0  0  0  0  0
   11.1888    3.9849    0.0000 C   0  0  0  0  0  0  0  0  0  0  0  0
   11.1888    4.8099    0.0000 O   0  0  0  0  0  0  0  0  0  0  0  0
   11.9033    3.5724    0.0000 O   0  0  0  0  0  0  0  0  0  0  0  0
   12.6177    3.9849    0.0000 C   0  0  0  0  0  0  0  0  0  0  0  0
   13.3322    3.5724    0.0000 C   0  0  0  0  0  0  0  0  0  0  0  0
   14.0467    3.9849    0.0000 C   0  0  0  0  0  0  0  0  0  0  0  0
   13.3322    2.7474    0.0000 C   0  0  0  0  0  0  0  0  0  0  0  0
  1  2  1  0  0  0  0
  2  3  1  0  0  0  0
  2  4  1  0  0  0  0
  4  5  1  0  0  0  0
  5  6  1  0  0  0  0
  6  7  2  0  0  0  0
  6  8  1  0  0  0  0
  8  9  1  0  0  0  0
  9 10  1  0  0  0  0
 10 11  1  0  0  0  0
 11 12  1  0  0  0  0
 12 13  2  0  0  0  0
 12 14  1  0  0  0  0
 14 15  1  0  0  0  0
 15 16  1  0  0  0  0
 16 17  1  0  0  0  0
 16 18  1  0  0  0  0
M  END
> <activity>
63.2

> <InChiKey>
RDOFJDLLWVCMRU-UHFFFAOYSA-N

$$$$

  Mrv2220 08292413132D          

 28 27  0  0  0  0            999 V2000
   12.1836    7.8592    0.0000 C   0  0  0  0  0  0  0  0  0  0  0  0
   12.8980    8.2717    0.0000 C   0  0  0  0  0  0  0  0  0  0  0  0
   13.6125    7.8592    0.0000 C   0  0  0  0  0  0  0  0  0  0  0  0
   14.3270    8.2717    0.0000 C   0  0  0  0  0  0  0  0  0  0  0  0
   15.0414    7.8592    0.0000 C   0  0  0  0  0  0  0  0  0  0  0  0
   15.7559    8.2717    0.0000 C   0  0  0  0  0  0  0  0  0  0  0  0
   16.4704    7.8592    0.0000 C   0  0  0  0  0  0  0  0  0  0  0  0
   17.1849    8.2717    0.0000 C   0  0  0  0  0  0  0  0  0  0  0  0
   17.8993    7.8592    0.0000 C   0  0  0  0  0  0  0  0  0  0  0  0
   18.6138    8.2717    0.0000 O   0  0  0  0  0  0  0  0  0  0  0  0
   19.3283    7.8592    0.0000 C   0  0  0  0  0  0  0  0  0  0  0  0
   19.3283    7.0342    0.0000 O   0  0  0  0  0  0  0  0  0  0  0  0
   20.0427    8.2717    0.0000 C   0  0  0  0  0  0  0  0  0  0  0  0
   20.7572    7.8592    0.0000 C   0  0  0  0  0  0  0  0  0  0  0  0
   21.4717    8.2717    0.0000 C   0  0  0  0  0  0  0  0  0  0  0  0
   22.1862    7.8592    0.0000 C   0  0  0  0  0  0  0  0  0  0  0  0
   22.9006    8.2717    0.0000 C   0  0  0  0  0  0  0  0  0  0  0  0
   22.9006    9.0967    0.0000 O   0  0  0  0  0  0  0  0  0  0  0  0
   23.6151    7.8592    0.0000 O   0  0  0  0  0  0  0  0  0  0  0  0
   24.3296    8.2717    0.0000 C   0  0  0  0  0  0  0  0  0  0  0  0
   25.0440    7.8592    0.0000 C   0  0  0  0  0  0  0  0  0  0  0  0
   25.7585    8.2717    0.0000 C   0  0  0  0  0  0  0  0  0  0  0  0
   26.4730    7.8592    0.0000 C   0  0  0  0  0  0  0  0  0  0  0  0
   27.1874    8.2717    0.0000 C   0  0  0  0  0  0  0  0  0  0  0  0
   27.9019    7.8592    0.0000 C   0  0  0  0  0  0  0  0  0  0  0  0
   28.6164    8.2717    0.0000 C   0  0  0  0  0  0  0  0  0  0  0  0
   29.3309    7.8592    0.0000 C   0  0  0  0  0  0  0  0  0  0  0  0
   30.0453    8.2717    0.0000 C   0  0  0  0  0  0  0  0  0  0  0  0
  1  2  1  0  0  0  0
  2  3  1  0  0  0  0
  3  4  1  0  0  0  0
  4  5  1  0  0  0  0
  5  6  1  0  0  0  0
  6  7  1  0  0  0  0
  7  8  1  0  0  0  0
  8  9  1  0  0  0  0
  9 10  1  0  0  0  0
 10 11  1  0  0  0  0
 11 12  2  0  0  0  0
 11 13  1  0  0  0  0
 13 14  1  0  0  0  0
 14 15  1  0  0  0  0
 15 16  1  0  0  0  0
 16 17  1  0  0  0  0
 17 18  2  0  0  0  0
 17 19  1  0  0  0  0
 19 20  1  0  0  0  0
 20 21  1  0  0  0  0
 21 22  1  0  0  0  0
 22 23  1  0  0  0  0
 23 24  1  0  0  0  0
 24 25  1  0  0  0  0
 25 26  1  0  0  0  0
 26 27  1  0  0  0  0
 27 28  1  0  0  0  0
M  END
> <activity>
4.6

> <InChiKey>
WIYAGHSNPUBKDT-UHFFFAOYSA-N

$$$$

  Mrv2220 08292413132D          

 30 30  0  0  0  0            999 V2000
   -2.1434   -7.0125    0.0000 C   0  0  0  0  0  0  0  0  0  0  0  0
   -1.4289   -7.4250    0.0000 C   0  0  0  0  0  0  0  0  0  0  0  0
   -1.4289   -8.2500    0.0000 C   0  0  0  0  0  0  0  0  0  0  0  0
   -0.7145   -7.0125    0.0000 C   0  0  0  0  0  0  0  0  0  0  0  0
    0.0000   -7.4250    0.0000 C   0  0  0  0  0  0  0  0  0  0  0  0
    0.7145   -7.0125    0.0000 C   0  0  0  0  0  0  0  0  0  0  0  0
    1.4289   -7.4250    0.0000 C   0  0  0  0  0  0  0  0  0  0  0  0
    2.1434   -7.0125    0.0000 C   0  0  0  0  0  0  0  0  0  0  0  0
    2.8579   -7.4250    0.0000 C   0  0  0  0  0  0  0  0  0  0  0  0
    3.5724   -7.0125    0.0000 C   0  0  0  0  0  0  0  0  0  0  0  0
    4.2868   -7.4250    0.0000 O   0  0  0  0  0  0  0  0  0  0  0  0
    5.0013   -7.0125    0.0000 P   0  0  0  0  0  0  0  0  0  0  0  0
    5.7158   -7.4250    0.0000 O   0  0  0  0  0  0  0  0  0  0  0  0
    6.4302   -7.0125    0.0000 C   0  0  0  0  0  0  0  0  0  0  0  0
    7.1447   -7.4250    0.0000 C   0  0  0  0  0  0  0  0  0  0  0  0
    7.8592   -7.0125    0.0000 C   0  0  0  0  0  0  0  0  0  0  0  0
    8.5737   -7.4250    0.0000 C   0  0  0  0  0  0  0  0  0  0  0  0
    9.2881   -7.0125    0.0000 C   0  0  0  0  0  0  0  0  0  0  0  0
   10.0026   -7.4250    0.0000 C   0  0  0  0  0  0  0  0  0  0  0  0
   10.7171   -7.0125    0.0000 C   0  0  0  0  0  0  0  0  0  0  0  0
   11.4315   -7.4250    0.0000 C   0  0  0  0  0  0  0  0  0  0  0  0
   12.1460   -7.0125    0.0000 C   0  0  0  0  0  0  0  0  0  0  0  0
   11.4315   -8.2500    0.0000 C   0  0  0  0  0  0  0  0  0  0  0  0
    5.0013   -6.1875    0.0000 O   0  0  0  0  0  0  0  0  0  0  0  0
    5.7158   -5.7750    0.0000 C   0  0  0  0  0  0  0  0  0  0  0  0
    5.7158   -4.9500    0.0000 C   0  0  0  0  0  0  0  0  0  0  0  0
    6.4302   -4.5375    0.0000 C   0  0  0  0  0  0  0  0  0  0  0  0
    7.1447   -4.9500    0.0000 C   0  0  0  0  0  0  0  0  0  0  0  0
    7.1447   -5.7750    0.0000 C   0  0  0  0  0  0  0  0  0  0  0  0
    6.4302   -6.1875    0.0000 C   0  0  0  0  0  0  0  0  0  0  0  0
  1  2  1  0  0  0  0
  2  3  1  0  0  0  0
  2  4  1  0  0  0  0
  4  5  1  0  0  0  0
  5  6  1  0  0  0  0
  6  7  1  0  0  0  0
  7  8  1  0  0  0  0
  8  9  1  0  0  0  0
  9 10  1  0  0  0  0
 10 11  1  0  0  0  0
 11 12  1  0  0  0  0
 12 13  1  0  0  0  0
 13 14  1  0  0  0  0
 14 15  1  0  0  0  0
 15 16  1  0  0  0  0
 16 17  1  0  0  0  0
 17 18  1  0  0  0  0
 18 19  1  0  0  0  0
 19 20  1  0  0  0  0
 20 21  1  0  0  0  0
 21 22  1  0  0  0  0
 21 23  1  0  0  0  0
 12 24  1  0  0  0  0
 24 25  1  0  0  0  0
 25 26  4  0  0  0  0
 26 27  4  0  0  0  0
 27 28  4  0  0  0  0
 28 29  4  0  0  0  0
 29 30  4  0  0  0  0
 25 30  4  0  0  0  0
M  END
> <activity>
101.9

> <InChiKey>
SXXILWLQSQDLDL-UHFFFAOYSA-N

$$$$

  Mrv2220 08292413132D          

 28 27  0  0  0  0            999 V2000
   10.9461    7.1447    0.0000 C   0  0  0  0  0  0  0  0  0  0  0  0
   11.6605    7.5572    0.0000 C   0  0  0  0  0  0  0  0  0  0  0  0
   11.6605    8.3822    0.0000 C   0  0  0  0  0  0  0  0  0  0  0  0
   12.3750    7.1447    0.0000 C   0  0  0  0  0  0  0  0  0  0  0  0
   13.0895    7.5572    0.0000 C   0  0  0  0  0  0  0  0  0  0  0  0
   13.8039    7.1447    0.0000 C   0  0  0  0  0  0  0  0  0  0  0  0
   14.5184    7.5572    0.0000 C   0  0  0  0  0  0  0  0  0  0  0  0
   15.2329    7.1447    0.0000 C   0  0  0  0  0  0  0  0  0  0  0  0
   15.9474    7.5572    0.0000 C   0  0  0  0  0  0  0  0  0  0  0  0
   16.6618    7.1447    0.0000 O   0  0  0  0  0  0  0  0  0  0  0  0
   17.3763    7.5572    0.0000 C   0  0  0  0  0  0  0  0  0  0  0  0
   17.3763    8.3822    0.0000 O   0  0  0  0  0  0  0  0  0  0  0  0
   18.0908    7.1447    0.0000 C   0  0  0  0  0  0  0  0  0  0  0  0
   18.8052    7.5572    0.0000 C   0  0  0  0  0  0  0  0  0  0  0  0
   19.5197    7.1447    0.0000 C   0  0  0  0  0  0  0  0  0  0  0  0
   20.2342    7.5572    0.0000 C   0  0  0  0  0  0  0  0  0  0  0  0
   20.9487    7.1447    0.0000 C   0  0  0  0  0  0  0  0  0  0  0  0
   20.9487    6.3197    0.0000 O   0  0  0  0  0  0  0  0  0  0  0  0
   21.6631    7.5572    0.0000 O   0  0  0  0  0  0  0  0  0  0  0  0
   22.3776    7.1447    0.0000 C   0  0  0  0  0  0  0  0  0  0  0  0
   23.0921    7.5572    0.0000 C   0  0  0  0  0  0  0  0  0  0  0  0
   23.8065    7.1447    0.0000 C   0  0  0  0  0  0  0  0  0  0  0  0
   24.5210    7.5572    0.0000 C   0  0  0  0  0  0  0  0  0  0  0  0
   25.2355    7.1447    0.0000 C   0  0  0  0  0  0  0  0  0  0  0  0
   25.9499    7.5572    0.0000 C   0  0  0  0  0  0  0  0  0  0  0  0
   26.6644    7.1447    0.0000 C   0  0  0  0  0  0  0  0  0  0  0  0
   27.3789    7.5572    0.0000 C   0  0  0  0  0  0  0  0  0  0  0  0
   26.6644    6.3197    0.0000 C   0  0  0  0  0  0  0  0  0  0  0  0
  1  2  1  0  0  0  0
  2  3  1  0  0  0  0
  2  4  1  0  0  0  0
  4  5  1  0  0  0  0
  5  6  1  0  0  0  0
  6  7  1  0  0  0  0
  7  8  1  0  0  0  0
  8  9  1  0  0  0  0
  9 10  1  0  0  0  0
 10 11  1  0  0  0  0
 11 12  2  0  0  0  0
 11 13  1  0  0  0  0
 13 14  1  0  0  0  0
 14 15  1  0  0  0  0
 15 16  1  0  0  0  0
 16 17  1  0  0  0  0
 17 18  2  0  0  0  0
 17 19  1  0  0  0  0
 19 20  1  0  0  0  0
 20 21  1  0  0  0  0
 21 22  1  0  0  0  0
 22 23  1  0  0  0  0
 23 24  1  0  0  0  0
 24 25  1  0  0  0  0
 25 26  1  0  0  0  0
 26 27  1  0  0  0  0
 26 28  1  0  0  0  0
M  END
> <activity>
-3.7

> <InChiKey>
AYWLCKHHUFBVGJ-UHFFFAOYSA-N

$$$$

  Mrv2220 08292413132D          

 30 30  0  0  0  0            999 V2000
   -2.8579   -6.6000    0.0000 C   0  0  0  0  0  0  0  0  0  0  0  0
   -2.1434   -6.1875    0.0000 C   0  0  0  0  0  0  0  0  0  0  0  0
   -1.4289   -6.6000    0.0000 C   0  0  0  0  0  0  0  0  0  0  0  0
   -2.1434   -5.3625    0.0000 C   0  0  0  0  0  0  0  0  0  0  0  0
   -1.4289   -4.9500    0.0000 C   0  0  0  0  0  0  0  0  0  0  0  0
   -1.4289   -4.1250    0.0000 C   0  0  0  0  0  0  0  0  0  0  0  0
   -0.7145   -3.7125    0.0000 C   0  0  0  0  0  0  0  0  0  0  0  0
   -0.7145   -2.8875    0.0000 C   0  0  0  0  0  0  0  0  0  0  0  0
    0.0000   -2.4750    0.0000 C   0  0  0  0  0  0  0  0  0  0  0  0
    0.0000   -1.6500    0.0000 O   0  0  0  0  0  0  0  0  0  0  0  0
    0.7145   -1.2375    0.0000 C   0  0  0  0  0  0  0  0  0  0  0  0
    1.4289   -1.6500    0.0000 O   0  0  0  0  0  0  0  0  0  0  0  0
    0.7145   -0.4125    0.0000 C   0  0  0  0  0  0  0  0  0  0  0  0
    0.0000    0.0000    0.0000 C   0  0  0  0  0  0  0  0  0  0  0  0
    0.0000    0.8250    0.0000 C   0  0  0  0  0  0  0  0  0  0  0  0
    0.7145    1.2375    0.0000 C   0  0  0  0  0  0  0  0  0  0  0  0
    1.4289    0.8250    0.0000 C   0  0  0  0  0  0  0  0  0  0  0  0
    1.4289    0.0000    0.0000 C   0  0  0  0  0  0  0  0  0  0  0  0
    2.1434   -0.4125    0.0000 C   0  0  0  0  0  0  0  0  0  0  0  0
    2.1434   -1.2375    0.0000 O   0  0  0  0  0  0  0  0  0  0  0  0
    2.8579    0.0000    0.0000 O   0  0  0  0  0  0  0  0  0  0  0  0
    3.5724   -0.4125    0.0000 C   0  0  0  0  0  0  0  0  0  0  0  0
    4.2868    0.0000    0.0000 C   0  0  0  0  0  0  0  0  0  0  0  0
    5.0013   -0.4125    0.0000 C   0  0  0  0  0  0  0  0  0  0  0  0
    5.7158    0.0000    0.0000 C   0  0  0  0  0  0  0  0  0  0  0  0
    6.4302   -0.4125    0.0000 C   0  0  0  0  0  0  0  0  0  0  0  0
    7.1447    0.0000    0.0000 C   0  0  0  0  0  0  0  0  0  0  0  0
    7.8592   -0.4125    0.0000 C   0  0  0  0  0  0  0  0  0  0  0  0
    8.5737    0.0000    0.0000 C   0  0  0  0  0  0  0  0  0  0  0  0
    7.8592   -1.2375    0.0000 C   0  0  0  0  0  0  0  0  0  0  0  0
  1  2  1  0  0  0  0
  2  3  1  0  0  0  0
  2  4  1  0  0  0  0
  4  5  1  0  0  0  0
  5  6  1  0  0  0  0
  6  7  1  0  0  0  0
  7  8  1  0  0  0  0
  8  9  1  0  0  0  0
  9 10  1  0  0  0  0
 10 11  1  0  0  0  0
 11 12  2  0  0  0  0
 11 13  1  0  0  0  0
 13 14  1  0  0  0  0
 14 15  1  0  0  0  0
 15 16  1  0  0  0  0
 16 17  1  0  0  0  0
 17 18  1  0  0  0  0
 13 18  1  0  0  0  0
 18 19  1  0  0  0  0
 19 20  2  0  0  0  0
 19 21  1  0  0  0  0
 21 22  1  0  0  0  0
 22 23  1  0  0  0  0
 23 24  1  0  0  0  0
 24 25  1  0  0  0  0
 25 26  1  0  0  0  0
 26 27  1  0  0  0  0
 27 28  1  0  0  0  0
 28 29  1  0  0  0  0
 28 30  1  0  0  0  0
M  END
> <activity>
-35.9

> <InChiKey>
HORIEOQXBKUKGQ-UHFFFAOYSA-N

$$$$

  Mrv2220 08292413132D          

 26 25  0  0  0  0            999 V2000
    9.7086    6.4302    0.0000 C   0  0  0  0  0  0  0  0  0  0  0  0
   10.4230    6.8427    0.0000 C   0  0  0  0  0  0  0  0  0  0  0  0
   10.4230    7.6677    0.0000 C   0  0  0  0  0  0  0  0  0  0  0  0
   11.1375    6.4302    0.0000 C   0  0  0  0  0  0  0  0  0  0  0  0
   11.8520    6.8427    0.0000 C   0  0  0  0  0  0  0  0  0  0  0  0
   12.5664    6.4302    0.0000 C   0  0  0  0  0  0  0  0  0  0  0  0
   13.2809    6.8427    0.0000 C   0  0  0  0  0  0  0  0  0  0  0  0
   13.9954    6.4302    0.0000 C   0  0  0  0  0  0  0  0  0  0  0  0
   14.7099    6.8427    0.0000 O   0  0  0  0  0  0  0  0  0  0  0  0
   15.4243    6.4302    0.0000 C   0  0  0  0  0  0  0  0  0  0  0  0
   15.4243    5.6052    0.0000 O   0  0  0  0  0  0  0  0  0  0  0  0
   16.1388    6.8427    0.0000 C   0  0  0  0  0  0  0  0  0  0  0  0
   16.8533    6.4302    0.0000 C   0  0  0  0  0  0  0  0  0  0  0  0
   17.5677    6.8427    0.0000 C   0  0  0  0  0  0  0  0  0  0  0  0
   18.2822    6.4302    0.0000 C   0  0  0  0  0  0  0  0  0  0  0  0
   18.9967    6.8427    0.0000 C   0  0  0  0  0  0  0  0  0  0  0  0
   18.9967    7.6677    0.0000 O   0  0  0  0  0  0  0  0  0  0  0  0
   19.7112    6.4302    0.0000 O   0  0  0  0  0  0  0  0  0  0  0  0
   20.4256    6.8427    0.0000 C   0  0  0  0  0  0  0  0  0  0  0  0
   21.1401    6.4302    0.0000 C   0  0  0  0  0  0  0  0  0  0  0  0
   21.8546    6.8427    0.0000 C   0  0  0  0  0  0  0  0  0  0  0  0
   22.5690    6.4302    0.0000 C   0  0  0  0  0  0  0  0  0  0  0  0
   23.2835    6.8427    0.0000 C   0  0  0  0  0  0  0  0  0  0  0  0
   23.9980    6.4302    0.0000 C   0  0  0  0  0  0  0  0  0  0  0  0
   24.7124    6.8427    0.0000 C   0  0  0  0  0  0  0  0  0  0  0  0
   23.9980    5.6052    0.0000 C   0  0  0  0  0  0  0  0  0  0  0  0
  1  2  1  0  0  0  0
  2  3  1  0  0  0  0
  2  4  1  0  0  0  0
  4  5  1  0  0  0  0
  5  6  1  0  0  0  0
  6  7  1  0  0  0  0
  7  8  1  0  0  0  0
  8  9  1  0  0  0  0
  9 10  1  0  0  0  0
 10 11  2  0  0  0  0
 10 12  1  0  0  0  0
 12 13  1  0  0  0  0
 13 14  1  0  0  0  0
 14 15  1  0  0  0  0
 15 16  1  0  0  0  0
 16 17  2  0  0  0  0
 16 18  1  0  0  0  0
 18 19  1  0  0  0  0
 19 20  1  0  0  0  0
 20 21  1  0  0  0  0
 21 22  1  0  0  0  0
 22 23  1  0  0  0  0
 23 24  1  0  0  0  0
 24 25  1  0  0  0  0
 24 26  1  0  0  0  0
M  END
> <activity>
21.0

> <InChiKey>
CJFLBOQMPJCWLR-UHFFFAOYSA-N

$$$$

  Mrv2220 08292413132D          

  9  8  0  0  0  0            999 V2000
    1.7605    1.8414    0.0000 C   0  0  0  0  0  0  0  0  0  0  0  0
    2.4750    1.4289    0.0000 C   0  0  0  0  0  0  0  0  0  0  0  0
    2.4750    0.6039    0.0000 O   0  0  0  0  0  0  0  0  0  0  0  0
    3.1895    1.8414    0.0000 C   0  0  0  0  0  0  0  0  0  0  0  0
    3.9039    1.4289    0.0000 N   0  0  0  0  0  0  0  0  0  0  0  0
    4.6184    1.8414    0.0000 C   0  0  0  0  0  0  0  0  0  0  0  0
    5.3329    1.4289    0.0000 C   0  0  0  0  0  0  0  0  0  0  0  0
    6.0474    1.8414    0.0000 C   0  0  0  0  0  0  0  0  0  0  0  0
    5.3329    0.6039    0.0000 O   0  0  0  0  0  0  0  0  0  0  0  0
  1  2  1  0  0  0  0
  2  3  1  0  0  0  0
  2  4  1  0  0  0  0
  4  5  1  0  0  0  0
  5  6  1  0  0  0  0
  6  7  1  0  0  0  0
  7  8  1  0  0  0  0
  7  9  1  0  0  0  0
M  END
> <activity>
11.5

> <InChiKey>
LVTYICIALWPMFW-UHFFFAOYSA-N

$$$$

  Mrv2220 08292413132D          

 18 18  0  0  0  0            999 V2000
    2.1434    3.7125    0.0000 C   0  0  0  0  0  0  0  0  0  0  0  0
    1.4289    3.3000    0.0000 C   0  0  0  0  0  0  0  0  0  0  0  0
    0.7145    3.7125    0.0000 C   0  0  0  0  0  0  0  0  0  0  0  0
    1.4289    2.4750    0.0000 O   0  0  0  0  0  0  0  0  0  0  0  0
    0.7145    2.0625    0.0000 C   0  0  0  0  0  0  0  0  0  0  0  0
    0.0000    2.4750    0.0000 O   0  0  0  0  0  0  0  0  0  0  0  0
    0.7145    1.2375    0.0000 C   0  0  0  0  0  0  0  0  0  0  0  0
    1.4289    0.8250    0.0000 C   0  0  0  0  0  0  0  0  0  0  0  0
    1.4289   -0.0000    0.0000 C   0  0  0  0  0  0  0  0  0  0  0  0
    0.7145   -0.4125    0.0000 C   0  0  0  0  0  0  0  0  0  0  0  0
    0.0000    0.0000    0.0000 C   0  0  0  0  0  0  0  0  0  0  0  0
    0.0000    0.8250    0.0000 C   0  0  0  0  0  0  0  0  0  0  0  0
   -0.7145    1.2375    0.0000 C   0  0  0  0  0  0  0  0  0  0  0  0
   -0.7145    2.0625    0.0000 O   0  0  0  0  0  0  0  0  0  0  0  0
   -1.4289    0.8250    0.0000 O   0  0  0  0  0  0  0  0  0  0  0  0
   -2.1434    1.2375    0.0000 C   0  0  0  0  0  0  0  0  0  0  0  0
   -2.8579    0.8250    0.0000 C   0  0  0  0  0  0  0  0  0  0  0  0
   -2.1434    2.0625    0.0000 C   0  0  0  0  0  0  0  0  0  0  0  0
  1  2  1  0  0  0  0
  2  3  1  0  0  0  0
  2  4  1  0  0  0  0
  4  5  1  0  0  0  0
  5  6  2  0  0  0  0
  5  7  1  0  0  0  0
  7  8  4  0  0  0  0
  8  9  4  0  0  0  0
  9 10  4  0  0  0  0
 10 11  4  0  0  0  0
 11 12  4  0  0  0  0
  7 12  4  0  0  0  0
 12 13  1  0  0  0  0
 13 14  2  0  0  0  0
 13 15  1  0  0  0  0
 15 16  1  0  0  0  0
 16 17  1  0  0  0  0
 16 18  1  0  0  0  0
M  END
> <activity>
56.5

> <InChiKey>
QWDBCIAVABMJPP-UHFFFAOYSA-N

$$$$

  Mrv2220 08292413132D          

 12 11  0  0  0  0            999 V2000
    4.8099    0.3020    0.0000 C   0  0  0  0  0  0  0  0  0  0  0  0
    4.0954    0.7145    0.0000 N   0  0  0  0  0  0  0  0  0  0  0  0
    3.3809    0.3020    0.0000 C   0  0  0  0  0  0  0  0  0  0  0  0
    3.3809   -0.5230    0.0000 O   0  0  0  0  0  0  0  0  0  0  0  0
    2.6664    0.7145    0.0000 C   0  0  0  0  0  0  0  0  0  0  0  0
    1.9520    0.3020    0.0000 S   0  0  0  0  0  0  0  0  0  0  0  0
    1.2375    0.7145    0.0000 P   0  0  0  0  0  0  0  0  0  0  0  0
    1.6500    1.4289    0.0000 S   0  0  0  0  0  0  0  0  0  0  0  0
    0.5230    1.1270    0.0000 O   0  0  0  0  0  0  0  0  0  0  0  0
   -0.1914    0.7145    0.0000 C   0  0  0  0  0  0  0  0  0  0  0  0
    0.8250    0.0000    0.0000 O   0  0  0  0  0  0  0  0  0  0  0  0
    0.0000    0.0000    0.0000 C   0  0  0  0  0  0  0  0  0  0  0  0
  1  2  1  0  0  0  0
  2  3  1  0  0  0  0
  3  4  2  0  0  0  0
  3  5  1  0  0  0  0
  5  6  1  0  0  0  0
  6  7  1  0  0  0  0
  7  8  2  0  0  0  0
  7  9  1  0  0  0  0
  9 10  1  0  0  0  0
  7 11  1  0  0  0  0
 11 12  1  0  0  0  0
M  END
> <activity>
39.7

> <InChiKey>
MCWXGJITAZMZEV-UHFFFAOYSA-N

$$$$

  Mrv2220 08292413132D          

 12 12  0  0  0  0            999 V2000
    0.0000    3.3000    0.0000 C   0  0  0  0  0  0  0  0  0  0  0  0
    0.0000    2.4750    0.0000 C   0  0  0  0  0  0  0  0  0  0  0  0
   -0.7145    2.0625    0.0000 O   0  0  0  0  0  0  0  0  0  0  0  0
    0.7145    2.0625    0.0000 O   0  0  0  0  0  0  0  0  0  0  0  0
    0.7145    1.2375    0.0000 C   0  0  0  0  0  0  0  0  0  0  0  0
    1.4289    0.8250    0.0000 C   0  0  0  0  0  0  0  0  0  0  0  0
    1.4289   -0.0000    0.0000 C   0  0  0  0  0  0  0  0  0  0  0  0
    2.1434   -0.4125    0.0000 C   0  0  0  0  0  0  0  0  0  0  0  0
    0.7145   -0.4125    0.0000 O   0  0  0  0  0  0  0  0  0  0  0  0
    0.0000    0.0000    0.0000 C   0  0  0  0  0  0  0  0  0  0  0  0
   -0.7145   -0.4125    0.0000 C   0  0  0  0  0  0  0  0  0  0  0  0
    0.0000    0.8250    0.0000 O   0  0  0  0  0  0  0  0  0  0  0  0
  1  2  1  0  0  0  0
  2  3  2  0  0  0  0
  2  4  1  0  0  0  0
  4  5  1  0  0  0  0
  5  6  1  0  0  0  0
  6  7  1  0  0  0  0
  7  8  1  0  0  0  0
  7  9  1  0  0  0  0
  9 10  1  0  0  0  0
 10 11  1  0  0  0  0
 10 12  1  0  0  0  0
  5 12  1  0  0  0  0
M  END
> <activity>
-24.1

> <InChiKey>
PHMNXPYGVPEQSJ-UHFFFAOYSA-N

$$$$

  Mrv2220 08292413132D          

  7  6  0  0  0  0            999 V2000
    2.4750   -1.4289    0.0000 C   0  0  0  0  0  0  0  0  0  0  0  0
    1.6500   -1.4289    0.0000 O   0  0  0  0  0  0  0  0  0  0  0  0
    1.2375   -0.7145    0.0000 Si  0  0  0  0  0  0  0  0  0  0  0  0
    1.9520   -0.3020    0.0000 C   0  0  0  0  0  0  0  0  0  0  0  0
    0.5230   -1.1270    0.0000 C   0  0  0  0  0  0  0  0  0  0  0  0
    0.8250    0.0000    0.0000 O   0  0  0  0  0  0  0  0  0  0  0  0
    0.0000    0.0000    0.0000 C   0  0  0  0  0  0  0  0  0  0  0  0
  1  2  1  0  0  0  0
  2  3  1  0  0  0  0
  3  4  1  0  0  0  0
  3  5  1  0  0  0  0
  3  6  1  0  0  0  0
  6  7  1  0  0  0  0
M  END
> <activity>
3.5

> <InChiKey>
JJQZDUKDJDQPMQ-UHFFFAOYSA-N

$$$$

  Mrv2220 08292413132D          

 11 10  0  0  0  0            999 V2000
    2.9980    2.5559    0.0000 C   0  0  0  0  0  0  0  0  0  0  0  0
    3.7125    2.1434    0.0000 O   0  0  0  0  0  0  0  0  0  0  0  0
    4.4270    2.5559    0.0000 C   0  0  0  0  0  0  0  0  0  0  0  0
    4.4270    3.3809    0.0000 O   0  0  0  0  0  0  0  0  0  0  0  0
    5.1414    2.1434    0.0000 C   0  0  0  0  0  0  0  0  0  0  0  0
    5.8559    2.5559    0.0000 C   0  0  0  0  0  0  0  0  0  0  0  0
    6.5704    2.1434    0.0000 C   0  0  0  0  0  0  0  0  0  0  0  0
    7.2849    2.5559    0.0000 C   0  0  0  0  0  0  0  0  0  0  0  0
    7.2849    3.3809    0.0000 O   0  0  0  0  0  0  0  0  0  0  0  0
    7.9993    2.1434    0.0000 O   0  0  0  0  0  0  0  0  0  0  0  0
    8.7138    2.5559    0.0000 C   0  0  0  0  0  0  0  0  0  0  0  0
  1  2  1  0  0  0  0
  2  3  1  0  0  0  0
  3  4  2  0  0  0  0
  3  5  1  0  0  0  0
  5  6  1  0  0  0  0
  6  7  1  0  0  0  0
  7  8  1  0  0  0  0
  8  9  2  0  0  0  0
  8 10  1  0  0  0  0
 10 11  1  0  0  0  0
M  END
> <activity>
8.1

> <InChiKey>
XTDYIOOONNVFMA-UHFFFAOYSA-N

$$$$

  Mrv2220 08292413132D          

 14 14  0  0  0  0            999 V2000
    1.4289    3.3000    0.0000 C   0  0  0  0  0  0  0  0  0  0  0  0
    1.4289    2.4750    0.0000 O   0  0  0  0  0  0  0  0  0  0  0  0
    0.7145    2.0625    0.0000 C   0  0  0  0  0  0  0  0  0  0  0  0
    0.0000    2.4750    0.0000 O   0  0  0  0  0  0  0  0  0  0  0  0
    0.7145    1.2375    0.0000 C   0  0  0  0  0  0  0  0  0  0  0  0
    1.4289    0.8250    0.0000 C   0  0  0  0  0  0  0  0  0  0  0  0
    1.4289   -0.0000    0.0000 C   0  0  0  0  0  0  0  0  0  0  0  0
    0.7145   -0.4125    0.0000 C   0  0  0  0  0  0  0  0  0  0  0  0
    0.0000    0.0000    0.0000 C   0  0  0  0  0  0  0  0  0  0  0  0
   -0.7145   -0.4125    0.0000 C   0  0  0  0  0  0  0  0  0  0  0  0
   -0.7145   -1.2375    0.0000 O   0  0  0  0  0  0  0  0  0  0  0  0
   -1.4289    0.0000    0.0000 O   0  0  0  0  0  0  0  0  0  0  0  0
   -2.1434   -0.4125    0.0000 C   0  0  0  0  0  0  0  0  0  0  0  0
    0.0000    0.8250    0.0000 C   0  0  0  0  0  0  0  0  0  0  0  0
  1  2  1  0  0  0  0
  2  3  1  0  0  0  0
  3  4  2  0  0  0  0
  3  5  1  0  0  0  0
  5  6  4  0  0  0  0
  6  7  4  0  0  0  0
  7  8  4  0  0  0  0
  8  9  4  0  0  0  0
  9 10  1  0  0  0  0
 10 11  2  0  0  0  0
 10 12  1  0  0  0  0
 12 13  1  0  0  0  0
  9 14  4  0  0  0  0
  5 14  4  0  0  0  0
M  END
> <activity>
40.7

> <InChiKey>
VNGOYPQMJFJDLV-UHFFFAOYSA-N

$$$$

  Mrv2220 08292413132D          

  7  6  0  0  0  0            999 V2000
    2.4750   -1.4289    0.0000 C   0  0  0  0  0  0  0  0  0  0  0  0
    1.6500   -1.4289    0.0000 O   0  0  0  0  0  0  0  0  0  0  0  0
    1.2375   -0.7145    0.0000 P   0  0  0  0  0  0  0  0  0  0  0  0
    1.9520   -0.3020    0.0000 C   0  0  0  0  0  0  0  0  0  0  0  0
    0.5230   -1.1270    0.0000 O   0  0  0  0  0  0  0  0  0  0  0  0
    0.8250    0.0000    0.0000 O   0  0  0  0  0  0  0  0  0  0  0  0
    0.0000    0.0000    0.0000 C   0  0  0  0  0  0  0  0  0  0  0  0
  1  2  1  0  0  0  0
  2  3  1  0  0  0  0
  3  4  1  0  0  0  0
  3  5  2  0  0  0  0
  3  6  1  0  0  0  0
  6  7  1  0  0  0  0
M  END
> <activity>
13.0

> <InChiKey>
VONWDASPFIQPDY-UHFFFAOYSA-N

$$$$

  Mrv2220 08292413132D          

 14 14  0  0  0  0            999 V2000
    1.4289    3.3000    0.0000 C   0  0  0  0  0  0  0  0  0  0  0  0
    1.4289    2.4750    0.0000 O   0  0  0  0  0  0  0  0  0  0  0  0
    0.7145    2.0625    0.0000 C   0  0  0  0  0  0  0  0  0  0  0  0
    0.0000    2.4750    0.0000 O   0  0  0  0  0  0  0  0  0  0  0  0
    0.7145    1.2375    0.0000 C   0  0  0  0  0  0  0  0  0  0  0  0
    1.4289    0.8250    0.0000 C   0  0  0  0  0  0  0  0  0  0  0  0
    1.4289   -0.0000    0.0000 C   0  0  0  0  0  0  0  0  0  0  0  0
    0.7145   -0.4125    0.0000 C   0  0  0  0  0  0  0  0  0  0  0  0
    0.0000    0.0000    0.0000 C   0  0  0  0  0  0  0  0  0  0  0  0
    0.0000    0.8250    0.0000 C   0  0  0  0  0  0  0  0  0  0  0  0
   -0.7145    1.2375    0.0000 C   0  0  0  0  0  0  0  0  0  0  0  0
   -1.4289    0.8250    0.0000 O   0  0  0  0  0  0  0  0  0  0  0  0
   -0.7145    2.0625    0.0000 O   0  0  0  0  0  0  0  0  0  0  0  0
   -1.4289    2.4750    0.0000 C   0  0  0  0  0  0  0  0  0  0  0  0
  1  2  1  0  0  0  0
  2  3  1  0  0  0  0
  3  4  2  0  0  0  0
  3  5  1  0  0  0  0
  5  6  4  0  0  0  0
  6  7  4  0  0  0  0
  7  8  4  0  0  0  0
  8  9  4  0  0  0  0
  9 10  4  0  0  0  0
  5 10  4  0  0  0  0
 10 11  1  0  0  0  0
 11 12  2  0  0  0  0
 11 13  1  0  0  0  0
 13 14  1  0  0  0  0
M  END
> <activity>
38.2

> <InChiKey>
NIQCNGHVCWTJSM-UHFFFAOYSA-N

$$$$

  Mrv2220 08292413132D          

 10  9  0  0  0  0            999 V2000
    1.0461    1.4289    0.0000 C   0  0  0  0  0  0  0  0  0  0  0  0
    1.7605    1.8414    0.0000 O   0  0  0  0  0  0  0  0  0  0  0  0
    2.4750    1.4289    0.0000 C   0  0  0  0  0  0  0  0  0  0  0  0
    2.4750    0.6039    0.0000 O   0  0  0  0  0  0  0  0  0  0  0  0
    3.1895    1.8414    0.0000 C   0  0  0  0  0  0  0  0  0  0  0  0
    3.9039    1.4289    0.0000 C   0  0  0  0  0  0  0  0  0  0  0  0
    4.6184    1.8414    0.0000 C   0  0  0  0  0  0  0  0  0  0  0  0
    4.6184    2.6664    0.0000 O   0  0  0  0  0  0  0  0  0  0  0  0
    5.3329    1.4289    0.0000 O   0  0  0  0  0  0  0  0  0  0  0  0
    6.0474    1.8414    0.0000 C   0  0  0  0  0  0  0  0  0  0  0  0
  1  2  1  0  0  0  0
  2  3  1  0  0  0  0
  3  4  2  0  0  0  0
  3  5  1  0  0  0  0
  5  6  1  0  0  0  0
  6  7  1  0  0  0  0
  7  8  2  0  0  0  0
  7  9  1  0  0  0  0
  9 10  1  0  0  0  0
M  END
> <activity>
5.0

> <InChiKey>
MUXOBHXGJLMRAB-UHFFFAOYSA-N

$$$$

  Mrv2220 08292413132D          

  7  6  0  0  0  0            999 V2000
    2.4750   -1.4289    0.0000 C   0  0  0  0  0  0  0  0  0  0  0  0
    1.6500   -1.4289    0.0000 O   0  0  0  0  0  0  0  0  0  0  0  0
    1.2375   -0.7145    0.0000 S   0  0  0  0  0  0  0  0  0  0  0  0
    1.9520   -0.3020    0.0000 O   0  0  0  0  0  0  0  0  0  0  0  0
    0.5230   -1.1270    0.0000 O   0  0  0  0  0  0  0  0  0  0  0  0
    0.8250    0.0000    0.0000 O   0  0  0  0  0  0  0  0  0  0  0  0
    0.0000    0.0000    0.0000 C   0  0  0  0  0  0  0  0  0  0  0  0
  1  2  1  0  0  0  0
  2  3  1  0  0  0  0
  3  4  2  0  0  0  0
  3  5  2  0  0  0  0
  3  6  1  0  0  0  0
  6  7  1  0  0  0  0
M  END
> <activity>
11.9

> <InChiKey>
VAYGXNSJCAHWJZ-UHFFFAOYSA-N

$$$$

  Mrv2220 08292413132D          

 14 14  0  0  0  0            999 V2000
    0.0000    3.3000    0.0000 C   0  0  0  0  0  0  0  0  0  0  0  0
    0.0000    2.4750    0.0000 O   0  0  0  0  0  0  0  0  0  0  0  0
    0.7145    2.0625    0.0000 C   0  0  0  0  0  0  0  0  0  0  0  0
    1.4289    2.4750    0.0000 O   0  0  0  0  0  0  0  0  0  0  0  0
    0.7145    1.2375    0.0000 C   0  0  0  0  0  0  0  0  0  0  0  0
    1.4289    0.8250    0.0000 C   0  0  0  0  0  0  0  0  0  0  0  0
    1.4289   -0.0000    0.0000 C   0  0  0  0  0  0  0  0  0  0  0  0
    0.7145   -0.4125    0.0000 C   0  0  0  0  0  0  0  0  0  0  0  0
    0.7145   -1.2375    0.0000 C   0  0  0  0  0  0  0  0  0  0  0  0
    1.4289   -1.6500    0.0000 O   0  0  0  0  0  0  0  0  0  0  0  0
   -0.0000   -1.6500    0.0000 O   0  0  0  0  0  0  0  0  0  0  0  0
   -0.0000   -2.4750    0.0000 C   0  0  0  0  0  0  0  0  0  0  0  0
    0.0000    0.0000    0.0000 C   0  0  0  0  0  0  0  0  0  0  0  0
    0.0000    0.8250    0.0000 C   0  0  0  0  0  0  0  0  0  0  0  0
  1  2  1  0  0  0  0
  2  3  1  0  0  0  0
  3  4  2  0  0  0  0
  3  5  1  0  0  0  0
  5  6  4  0  0  0  0
  6  7  4  0  0  0  0
  7  8  4  0  0  0  0
  8  9  1  0  0  0  0
  9 10  2  0  0  0  0
  9 11  1  0  0  0  0
 11 12  1  0  0  0  0
  8 13  4  0  0  0  0
 13 14  4  0  0  0  0
  5 14  4  0  0  0  0
M  END
> <activity>
39.6

> <InChiKey>
WOZVHXUHUFLZGK-UHFFFAOYSA-N

$$$$

  Mrv2220 08292413132D          

  7  7  0  0  0  0            999 V2000
    0.7145    2.0625    0.0000 N   0  0  0  0  0  0  0  0  0  0  0  0
    0.7145    1.2375    0.0000 C   0  0  0  0  0  0  0  0  0  0  0  0
    1.4289    0.8250    0.0000 C   0  0  0  0  0  0  0  0  0  0  0  0
    1.4289   -0.0000    0.0000 C   0  0  0  0  0  0  0  0  0  0  0  0
    0.7145   -0.4125    0.0000 C   0  0  0  0  0  0  0  0  0  0  0  0
    0.0000    0.0000    0.0000 C   0  0  0  0  0  0  0  0  0  0  0  0
    0.0000    0.8250    0.0000 C   0  0  0  0  0  0  0  0  0  0  0  0
  1  2  1  0  0  0  0
  2  3  4  0  0  0  0
  3  4  4  0  0  0  0
  4  5  4  0  0  0  0
  5  6  4  0  0  0  0
  6  7  4  0  0  0  0
  2  7  4  0  0  0  0
M  END
> <activity>
33.9

> <InChiKey>
PAYRUJLWNCNPSJ-UHFFFAOYSA-N

$$$$

  Mrv2220 08292413132D          

  5  4  0  0  0  0            999 V2000
    0.8250   -0.8250    0.0000 C   0  0  0  0  0  0  0  0  0  0  0  0
    0.8250    0.0000    0.0000 As  0  0  0  0  0  0  0  0  0  0  0  0
    0.8250    0.8250    0.0000 C   0  0  0  0  0  0  0  0  0  0  0  0
    1.6500   -0.0000    0.0000 O   0  0  0  0  0  0  0  0  0  0  0  0
    0.0000    0.0000    0.0000 O   0  0  0  0  0  0  0  0  0  0  0  0
  1  2  1  0  0  0  0
  2  3  1  0  0  0  0
  2  4  2  0  0  0  0
  2  5  1  0  0  0  0
M  END
> <activity>
-1.8

> <InChiKey>
OGGXGZAMXPVRFZ-UHFFFAOYSA-N

$$$$

  Mrv2220 08292413132D          

  6  5  0  0  0  0            999 V2000
    0.8250    1.4289    0.0000 C   0  0  0  0  0  0  0  0  0  0  0  0
    1.2375    0.7145    0.0000 N   0  0  0  0  0  0  0  0  0  0  0  0
    2.0625    0.7145    0.0000 C   0  0  0  0  0  0  0  0  0  0  0  0
    0.8250    0.0000    0.0000 C   0  0  0  0  0  0  0  0  0  0  0  0
    1.2375   -0.7145    0.0000 O   0  0  0  0  0  0  0  0  0  0  0  0
    0.0000    0.0000    0.0000 Cl  0  0  0  0  0  0  0  0  0  0  0  0
  1  2  1  0  0  0  0
  2  3  1  0  0  0  0
  2  4  1  0  0  0  0
  4  5  2  0  0  0  0
  4  6  1  0  0  0  0
M  END
> <activity>
-3.9

> <InChiKey>
YIIMEMSDCNDGTB-UHFFFAOYSA-N

$$$$

  Mrv2220 08292413132D          

 21 22  0  0  0  0            999 V2000
   -0.6078    2.7027    0.0000 C   0  0  0  0  0  0  0  0  0  0  0  0
   -0.6078    1.8777    0.0000 C   0  0  0  0  0  0  0  0  0  0  0  0
   -1.4328    1.8777    0.0000 C   0  0  0  0  0  0  0  0  0  0  0  0
    0.2172    1.8777    0.0000 C   0  0  0  0  0  0  0  0  0  0  0  0
   -0.6078    1.0527    0.0000 C   0  0  0  0  0  0  0  0  0  0  0  0
    0.1067    0.6402    0.0000 O   0  0  0  0  0  0  0  0  0  0  0  0
   -1.3222    0.6402    0.0000 C   0  0  0  0  0  0  0  0  0  0  0  0
   -2.0367    1.0527    0.0000 C   0  0  0  0  0  0  0  0  0  0  0  0
   -2.7512    0.6402    0.0000 C   0  0  0  0  0  0  0  0  0  0  0  0
   -2.7512   -0.1848    0.0000 C   0  0  0  0  0  0  0  0  0  0  0  0
   -3.4656   -0.5973    0.0000 C   0  0  0  0  0  0  0  0  0  0  0  0
   -4.1801   -0.1848    0.0000 C   0  0  0  0  0  0  0  0  0  0  0  0
   -4.8946   -0.5973    0.0000 Cl  0  0  0  0  0  0  0  0  0  0  0  0
   -4.1801    0.6402    0.0000 C   0  0  0  0  0  0  0  0  0  0  0  0
   -3.4656    1.0527    0.0000 C   0  0  0  0  0  0  0  0  0  0  0  0
   -3.4656    1.8777    0.0000 Cl  0  0  0  0  0  0  0  0  0  0  0  0
   -1.3222   -0.1848    0.0000 N   0  0  0  0  0  0  0  0  0  0  0  0
   -0.6548   -0.6697    0.0000 C   0  0  0  0  0  0  0  0  0  0  0  0
   -0.9097   -1.4544    0.0000 N   0  0  0  0  0  0  0  0  0  0  0  0
   -1.7347   -1.4544    0.0000 C   0  0  0  0  0  0  0  0  0  0  0  0
   -1.9897   -0.6697    0.0000 N   0  0  0  0  0  0  0  0  0  0  0  0
  1  2  1  0  0  0  0
  2  3  1  0  0  0  0
  2  4  1  0  0  0  0
  2  5  1  0  0  0  0
  5  6  1  0  0  0  0
  5  7  1  0  0  0  0
  7  8  2  0  0  0  0
  8  9  1  4  0  0  0
  9 10  4  0  0  0  0
 10 11  4  0  0  0  0
 11 12  4  0  0  0  0
 12 13  1  0  0  0  0
 12 14  4  0  0  0  0
 14 15  4  0  0  0  0
  9 15  4  0  0  0  0
 15 16  1  0  0  0  0
  7 17  1  0  0  0  0
 17 18  4  0  0  0  0
 18 19  4  0  0  0  0
 19 20  4  0  0  0  0
 20 21  4  0  0  0  0
 17 21  4  0  0  0  0
M  END
> <activity>
82.7

> <InChiKey>
FBOUIAKEJMZPQG-UHFFFAOYSA-N

$$$$

  Mrv2220 08292413132D          

 26 26  0  0  0  0            999 V2000
   -5.7158    2.4750    0.0000 C   0  0  0  0  0  0  0  0  0  0  0  0
   -5.0013    2.8875    0.0000 C   0  0  0  0  0  0  0  0  0  0  0  0
   -4.2868    2.4750    0.0000 C   0  0  0  0  0  0  0  0  0  0  0  0
   -4.2868    1.6500    0.0000 C   0  0  0  0  0  0  0  0  0  0  0  0
   -5.0013    1.2375    0.0000 O   0  0  0  0  0  0  0  0  0  0  0  0
   -3.5724    1.2375    0.0000 O   0  0  0  0  0  0  0  0  0  0  0  0
   -3.5724    0.4125    0.0000 C   0  0  0  0  0  0  0  0  0  0  0  0
   -2.8579   -0.0000    0.0000 C   0  0  0  0  0  0  0  0  0  0  0  0
   -2.1434    0.4125    0.0000 C   0  0  0  0  0  0  0  0  0  0  0  0
   -2.1434    1.2375    0.0000 C   0  0  0  0  0  0  0  0  0  0  0  0
   -1.4289   -0.0000    0.0000 C   0  0  0  0  0  0  0  0  0  0  0  0
   -0.7145    0.4125    0.0000 C   0  0  0  0  0  0  0  0  0  0  0  0
    0.0000   -0.0000    0.0000 C   0  0  0  0  0  0  0  0  0  0  0  0
    0.7145    0.4125    0.0000 C   0  0  0  0  0  0  0  0  0  0  0  0
    1.4289   -0.0000    0.0000 C   0  0  0  0  0  0  0  0  0  0  0  0
    2.1434    0.4125    0.0000 C   0  0  0  0  0  0  0  0  0  0  0  0
   -2.8579   -0.8250    0.0000 C   0  0  0  0  0  0  0  0  0  0  0  0
   -3.5724   -1.2375    0.0000 C   0  0  0  0  0  0  0  0  0  0  0  0
   -3.5724   -2.0625    0.0000 N   0  3  0  0  0  0  0  0  0  0  0  0
   -4.2868   -2.4750    0.0000 O   0  0  0  0  0  0  0  0  0  0  0  0
   -2.8579   -2.4750    0.0000 O   0  5  0  0  0  0  0  0  0  0  0  0
   -4.2868   -0.8250    0.0000 C   0  0  0  0  0  0  0  0  0  0  0  0
   -4.2868   -0.0000    0.0000 C   0  0  0  0  0  0  0  0  0  0  0  0
   -5.0013    0.4125    0.0000 N   0  3  0  0  0  0  0  0  0  0  0  0
   -5.4862    1.0799    0.0000 O   0  0  0  0  0  0  0  0  0  0  0  0
   -5.7158   -0.0000    0.0000 O   0  5  0  0  0  0  0  0  0  0  0  0
  2  1  1  4  0  0  0
  2  3  2  0  0  0  0
  3  4  1  0  0  0  0
  4  5  2  0  0  0  0
  4  6  1  0  0  0  0
  6  7  1  0  0  0  0
  7  8  4  0  0  0  0
  8  9  1  0  0  0  0
  9 10  1  0  0  0  0
  9 11  1  0  0  0  0
 11 12  1  0  0  0  0
 12 13  1  0  0  0  0
 13 14  1  0  0  0  0
 14 15  1  0  0  0  0
 15 16  1  0  0  0  0
  8 17  4  0  0  0  0
 17 18  4  0  0  0  0
 18 19  1  0  0  0  0
 19 20  2  0  0  0  0
 19 21  1  0  0  0  0
 18 22  4  0  0  0  0
 22 23  4  0  0  0  0
  7 23  4  0  0  0  0
 23 24  1  0  0  0  0
 24 25  2  0  0  0  0
 24 26  1  0  0  0  0
M  CHG  4  19   1  21  -1  24   1  26  -1
M  END
> <activity>
111.1

> <InChiKey>
NIOPZPCMRQGZCE-UHFFFAOYSA-N

$$$$

  Mrv2220 08292413132D          

 17 17  0  0  0  0            999 V2000
    0.0000    3.3000    0.0000 C   0  0  0  0  0  0  0  0  0  0  0  0
    0.0000    2.4750    0.0000 C   0  0  0  0  0  0  0  0  0  0  0  0
    0.7145    2.0625    0.0000 C   0  0  0  0  0  0  0  0  0  0  0  0
    1.4289    2.4750    0.0000 C   0  0  0  0  0  0  0  0  0  0  0  0
    0.7145    1.2375    0.0000 C   0  0  0  0  0  0  0  0  0  0  0  0
    1.4289    0.8250    0.0000 C   0  0  0  0  0  0  0  0  0  0  0  0
    1.4289   -0.0000    0.0000 C   0  0  0  0  0  0  0  0  0  0  0  0
    2.1434   -0.4125    0.0000 N   0  3  0  0  0  0  0  0  0  0  0  0
    2.8579   -0.0000    0.0000 O   0  0  0  0  0  0  0  0  0  0  0  0
    2.1434   -1.2375    0.0000 O   0  5  0  0  0  0  0  0  0  0  0  0
    0.7145   -0.4125    0.0000 C   0  0  0  0  0  0  0  0  0  0  0  0
    0.0000    0.0000    0.0000 C   0  0  0  0  0  0  0  0  0  0  0  0
   -0.7145   -0.4125    0.0000 N   0  3  0  0  0  0  0  0  0  0  0  0
   -1.4289    0.0000    0.0000 O   0  0  0  0  0  0  0  0  0  0  0  0
   -0.7145   -1.2375    0.0000 O   0  5  0  0  0  0  0  0  0  0  0  0
    0.0000    0.8250    0.0000 C   0  0  0  0  0  0  0  0  0  0  0  0
   -0.7145    1.2375    0.0000 O   0  0  0  0  0  0  0  0  0  0  0  0
  1  2  1  0  0  0  0
  2  3  1  0  0  0  0
  3  4  1  0  0  0  0
  3  5  1  0  0  0  0
  5  6  4  0  0  0  0
  6  7  4  0  0  0  0
  7  8  1  0  0  0  0
  8  9  2  0  0  0  0
  8 10  1  0  0  0  0
  7 11  4  0  0  0  0
 11 12  4  0  0  0  0
 12 13  1  0  0  0  0
 13 14  2  0  0  0  0
 13 15  1  0  0  0  0
 12 16  4  0  0  0  0
  5 16  4  0  0  0  0
 16 17  1  0  0  0  0
M  CHG  4   8   1  10  -1  13   1  15  -1
M  END
> <activity>
109.0

> <InChiKey>
OWZPCEFYPSAJFR-UHFFFAOYSA-N

$$$$

  Mrv2220 08292413132D          

 14 14  0  0  0  0            999 V2000
   -1.5757    3.1768    0.0000 C   0  0  0  0  0  0  0  0  0  0  0  0
   -0.8612    3.5893    0.0000 N   0  0  0  0  0  0  0  0  0  0  0  0
   -0.1467    3.1768    0.0000 C   0  0  0  0  0  0  0  0  0  0  0  0
    0.5678    3.5893    0.0000 N   0  0  0  0  0  0  0  0  0  0  0  0
    0.5678    4.4143    0.0000 N   0  3  0  0  0  0  0  0  0  0  0  0
    1.2822    4.8268    0.0000 O   0  0  0  0  0  0  0  0  0  0  0  0
   -0.1467    4.8268    0.0000 O   0  5  0  0  0  0  0  0  0  0  0  0
   -0.1467    2.3518    0.0000 N   0  0  0  0  0  0  0  0  0  0  0  0
    0.5678    1.9393    0.0000 C   0  0  0  0  0  0  0  0  0  0  0  0
    0.5678    1.1143    0.0000 C   0  0  0  0  0  0  0  0  0  0  0  0
    1.2352    0.6294    0.0000 C   0  0  0  0  0  0  0  0  0  0  0  0
    0.9803   -0.1553    0.0000 C   0  0  0  0  0  0  0  0  0  0  0  0
    0.1553   -0.1553    0.0000 O   0  0  0  0  0  0  0  0  0  0  0  0
   -0.0997    0.6294    0.0000 C   0  0  0  0  0  0  0  0  0  0  0  0
  1  2  1  0  0  0  0
  2  3  1  0  0  0  0
  3  4  2  0  0  0  0
  4  5  1  4  0  0  0
  5  6  2  0  0  0  0
  5  7  1  0  0  0  0
  3  8  1  0  0  0  0
  8  9  1  0  0  0  0
  9 10  1  0  0  0  0
 10 11  1  0  0  0  0
 11 12  1  0  0  0  0
 12 13  1  0  0  0  0
 13 14  1  0  0  0  0
 10 14  1  0  0  0  0
M  CHG  2   5   1   7  -1
M  END
> <activity>
7.4

> <InChiKey>
YKBZOVFACRVRJN-UHFFFAOYSA-N

$$$$

  Mrv2220 08292413132D          

 30 30  0  0  0  0            999 V2000
   -2.8579   -6.6000    0.0000 C   0  0  0  0  0  0  0  0  0  0  0  0
   -2.1434   -6.1875    0.0000 C   0  0  0  0  0  0  0  0  0  0  0  0
   -1.4289   -6.6000    0.0000 C   0  0  0  0  0  0  0  0  0  0  0  0
   -2.1434   -5.3625    0.0000 C   0  0  0  0  0  0  0  0  0  0  0  0
   -1.4289   -4.9500    0.0000 C   0  0  0  0  0  0  0  0  0  0  0  0
   -1.4289   -4.1250    0.0000 C   0  0  0  0  0  0  0  0  0  0  0  0
   -0.7145   -3.7125    0.0000 C   0  0  0  0  0  0  0  0  0  0  0  0
   -0.7145   -2.8875    0.0000 C   0  0  0  0  0  0  0  0  0  0  0  0
    0.0000   -2.4750    0.0000 C   0  0  0  0  0  0  0  0  0  0  0  0
    0.0000   -1.6500    0.0000 O   0  0  0  0  0  0  0  0  0  0  0  0
    0.7145   -1.2375    0.0000 C   0  0  0  0  0  0  0  0  0  0  0  0
    1.4289   -1.6500    0.0000 O   0  0  0  0  0  0  0  0  0  0  0  0
    0.7145   -0.4125    0.0000 C   0  0  0  0  0  0  0  0  0  0  0  0
    0.0000    0.0000    0.0000 C   0  0  0  0  0  0  0  0  0  0  0  0
    0.0000    0.8250    0.0000 C   0  0  0  0  0  0  0  0  0  0  0  0
    0.7145    1.2375    0.0000 C   0  0  0  0  0  0  0  0  0  0  0  0
    1.4289    0.8250    0.0000 C   0  0  0  0  0  0  0  0  0  0  0  0
    1.4289    0.0000    0.0000 C   0  0  0  0  0  0  0  0  0  0  0  0
    2.1434   -0.4125    0.0000 C   0  0  0  0  0  0  0  0  0  0  0  0
    2.1434   -1.2375    0.0000 O   0  0  0  0  0  0  0  0  0  0  0  0
    2.8579    0.0000    0.0000 O   0  0  0  0  0  0  0  0  0  0  0  0
    3.5724   -0.4125    0.0000 C   0  0  0  0  0  0  0  0  0  0  0  0
    4.2868    0.0000    0.0000 C   0  0  0  0  0  0  0  0  0  0  0  0
    5.0013   -0.4125    0.0000 C   0  0  0  0  0  0  0  0  0  0  0  0
    5.7158    0.0000    0.0000 C   0  0  0  0  0  0  0  0  0  0  0  0
    6.4302   -0.4125    0.0000 C   0  0  0  0  0  0  0  0  0  0  0  0
    7.1447    0.0000    0.0000 C   0  0  0  0  0  0  0  0  0  0  0  0
    7.8592   -0.4125    0.0000 C   0  0  0  0  0  0  0  0  0  0  0  0
    8.5737    0.0000    0.0000 C   0  0  0  0  0  0  0  0  0  0  0  0
    7.8592   -1.2375    0.0000 C   0  0  0  0  0  0  0  0  0  0  0  0
  1  2  1  0  0  0  0
  2  3  1  0  0  0  0
  2  4  1  0  0  0  0
  4  5  1  0  0  0  0
  5  6  1  0  0  0  0
  6  7  1  0  0  0  0
  7  8  1  0  0  0  0
  8  9  1  0  0  0  0
  9 10  1  0  0  0  0
 10 11  1  0  0  0  0
 11 12  2  0  0  0  0
 11 13  1  0  0  0  0
 13 14  4  0  0  0  0
 14 15  4  0  0  0  0
 15 16  4  0  0  0  0
 16 17  4  0  0  0  0
 17 18  4  0  0  0  0
 13 18  4  0  0  0  0
 18 19  1  0  0  0  0
 19 20  2  0  0  0  0
 19 21  1  0  0  0  0
 21 22  1  0  0  0  0
 22 23  1  0  0  0  0
 23 24  1  0  0  0  0
 24 25  1  0  0  0  0
 25 26  1  0  0  0  0
 26 27  1  0  0  0  0
 27 28  1  0  0  0  0
 28 29  1  0  0  0  0
 28 30  1  0  0  0  0
M  END
> <activity>
13.4

> <InChiKey>
HBGGXOJOCNVPFY-UHFFFAOYSA-N

$$$$

  Mrv2220 08292413132D          

 22 22  0  0  0  0            999 V2000
   -3.5724    1.2375    0.0000 C   0  0  0  0  0  0  0  0  0  0  0  0
   -2.8579    1.6500    0.0000 C   0  0  0  0  0  0  0  0  0  0  0  0
   -2.1434    1.2375    0.0000 C   0  0  0  0  0  0  0  0  0  0  0  0
   -1.4289    1.6500    0.0000 C   0  0  0  0  0  0  0  0  0  0  0  0
   -0.7145    1.2375    0.0000 C   0  0  0  0  0  0  0  0  0  0  0  0
    0.0000    1.6500    0.0000 O   0  0  0  0  0  0  0  0  0  0  0  0
    0.7145    1.2375    0.0000 C   0  0  0  0  0  0  0  0  0  0  0  0
    0.7145    0.4125    0.0000 O   0  0  0  0  0  0  0  0  0  0  0  0
    1.4289    1.6500    0.0000 C   0  0  0  0  0  0  0  0  0  0  0  0
    1.4289    2.4750    0.0000 C   0  0  0  0  0  0  0  0  0  0  0  0
    2.1434    2.8875    0.0000 C   0  0  0  0  0  0  0  0  0  0  0  0
    2.8579    2.4750    0.0000 C   0  0  0  0  0  0  0  0  0  0  0  0
    2.8579    1.6500    0.0000 C   0  0  0  0  0  0  0  0  0  0  0  0
    2.1434    1.2375    0.0000 C   0  0  0  0  0  0  0  0  0  0  0  0
    2.1434    0.4125    0.0000 C   0  0  0  0  0  0  0  0  0  0  0  0
    1.4289    0.0000    0.0000 O   0  0  0  0  0  0  0  0  0  0  0  0
    2.8579    0.0000    0.0000 O   0  0  0  0  0  0  0  0  0  0  0  0
    3.5724    0.4125    0.0000 C   0  0  0  0  0  0  0  0  0  0  0  0
    4.2868    0.0000    0.0000 C   0  0  0  0  0  0  0  0  0  0  0  0
    5.0013    0.4125    0.0000 C   0  0  0  0  0  0  0  0  0  0  0  0
    5.7158    0.0000    0.0000 C   0  0  0  0  0  0  0  0  0  0  0  0
    6.4302    0.4125    0.0000 C   0  0  0  0  0  0  0  0  0  0  0  0
  1  2  1  0  0  0  0
  2  3  1  0  0  0  0
  3  4  1  0  0  0  0
  4  5  1  0  0  0  0
  5  6  1  0  0  0  0
  6  7  1  0  0  0  0
  7  8  2  0  0  0  0
  7  9  1  0  0  0  0
  9 10  4  0  0  0  0
 10 11  4  0  0  0  0
 11 12  4  0  0  0  0
 12 13  4  0  0  0  0
 13 14  4  0  0  0  0
  9 14  4  0  0  0  0
 14 15  1  0  0  0  0
 15 16  2  0  0  0  0
 15 17  1  0  0  0  0
 17 18  1  0  0  0  0
 18 19  1  0  0  0  0
 19 20  1  0  0  0  0
 20 21  1  0  0  0  0
 21 22  1  0  0  0  0
M  END
> <activity>
49.6

> <InChiKey>
IPKKHRVROFYTEK-UHFFFAOYSA-N

$$$$

  Mrv2220 08292413132D          

 24 26  0  0  0  0            999 V2000
    5.7158   -4.1250    0.0000 O   0  0  0  0  0  0  0  0  0  0  0  0
    5.0013   -3.7125    0.0000 C   0  0  0  0  0  0  0  0  0  0  0  0
    4.2868   -4.1250    0.0000 O   0  0  0  0  0  0  0  0  0  0  0  0
    4.2868   -4.9500    0.0000 C   0  0  0  0  0  0  0  0  0  0  0  0
    5.0013   -5.3625    0.0000 C   0  0  0  0  0  0  0  0  0  0  0  0
    5.0013   -6.1875    0.0000 C   0  0  0  0  0  0  0  0  0  0  0  0
    4.2868   -6.6000    0.0000 C   0  0  0  0  0  0  0  0  0  0  0  0
    3.5724   -6.1875    0.0000 C   0  0  0  0  0  0  0  0  0  0  0  0
    3.5724   -5.3625    0.0000 C   0  0  0  0  0  0  0  0  0  0  0  0
    5.0013   -2.8875    0.0000 C   0  0  0  0  0  0  0  0  0  0  0  0
    4.2868   -2.4750    0.0000 C   0  0  0  0  0  0  0  0  0  0  0  0
    4.2868   -1.6500    0.0000 C   0  0  0  0  0  0  0  0  0  0  0  0
    5.0013   -1.2375    0.0000 C   0  0  0  0  0  0  0  0  0  0  0  0
    5.7158   -1.6500    0.0000 C   0  0  0  0  0  0  0  0  0  0  0  0
    6.4302   -1.2375    0.0000 C   0  0  0  0  0  0  0  0  0  0  0  0
    7.1447   -1.6500    0.0000 O   0  0  0  0  0  0  0  0  0  0  0  0
    6.4302   -0.4125    0.0000 O   0  0  0  0  0  0  0  0  0  0  0  0
    7.1447    0.0000    0.0000 C   0  0  0  0  0  0  0  0  0  0  0  0
    7.1447    0.8250    0.0000 C   0  0  0  0  0  0  0  0  0  0  0  0
    7.8592    1.2375    0.0000 C   0  0  0  0  0  0  0  0  0  0  0  0
    8.5737    0.8250    0.0000 C   0  0  0  0  0  0  0  0  0  0  0  0
    8.5737   -0.0000    0.0000 C   0  0  0  0  0  0  0  0  0  0  0  0
    7.8592   -0.4125    0.0000 C   0  0  0  0  0  0  0  0  0  0  0  0
    5.7158   -2.4750    0.0000 C   0  0  0  0  0  0  0  0  0  0  0  0
  1  2  2  0  0  0  0
  2  3  1  0  0  0  0
  3  4  1  0  0  0  0
  4  5  4  0  0  0  0
  5  6  4  0  0  0  0
  6  7  4  0  0  0  0
  7  8  4  0  0  0  0
  8  9  4  0  0  0  0
  4  9  4  0  0  0  0
  2 10  1  0  0  0  0
 10 11  4  0  0  0  0
 11 12  4  0  0  0  0
 12 13  4  0  0  0  0
 13 14  4  0  0  0  0
 14 15  1  0  0  0  0
 15 16  2  0  0  0  0
 15 17  1  0  0  0  0
 17 18  1  0  0  0  0
 18 19  4  0  0  0  0
 19 20  4  0  0  0  0
 20 21  4  0  0  0  0
 21 22  4  0  0  0  0
 22 23  4  0  0  0  0
 18 23  4  0  0  0  0
 14 24  4  0  0  0  0
 10 24  4  0  0  0  0
M  END
> <activity>
79.0

> <InChiKey>
FHESUNXRPBHDQM-UHFFFAOYSA-N

$$$$

  Mrv2220 08292413132D          

 13 14  0  0  0  0            999 V2000
    2.1434   -2.8875    0.0000 C   0  0  0  0  0  0  0  0  0  0  0  0
    1.4289   -2.4750    0.0000 C   0  0  0  0  0  0  0  0  0  0  0  0
    1.4289   -1.6500    0.0000 C   0  0  0  0  0  0  0  0  0  0  0  0
    2.1434   -1.2375    0.0000 C   0  0  0  0  0  0  0  0  0  0  0  0
    2.1434   -0.4125    0.0000 O   0  0  0  0  0  0  0  0  0  0  0  0
    2.8579    0.0000    0.0000 C   0  0  0  0  0  0  0  0  0  0  0  0
    2.8579    0.8250    0.0000 C   0  0  0  0  0  0  0  0  0  0  0  0
    3.5724    1.2375    0.0000 C   0  0  0  0  0  0  0  0  0  0  0  0
    4.2868    0.8250    0.0000 C   0  0  0  0  0  0  0  0  0  0  0  0
    4.2868    0.0000    0.0000 C   0  0  0  0  0  0  0  0  0  0  0  0
    3.5724   -0.4125    0.0000 C   0  0  0  0  0  0  0  0  0  0  0  0
    2.8579   -1.6500    0.0000 C   0  0  0  0  0  0  0  0  0  0  0  0
    2.8579   -2.4750    0.0000 C   0  0  0  0  0  0  0  0  0  0  0  0
  1  2  4  0  0  0  0
  2  3  4  0  0  0  0
  3  4  4  0  0  0  0
  4  5  1  0  0  0  0
  5  6  1  0  0  0  0
  6  7  4  0  0  0  0
  7  8  4  0  0  0  0
  8  9  4  0  0  0  0
  9 10  4  0  0  0  0
 10 11  4  0  0  0  0
  6 11  4  0  0  0  0
  4 12  4  0  0  0  0
 12 13  4  0  0  0  0
  1 13  4  0  0  0  0
M  END
> <activity>
57.9

> <InChiKey>
USIUVYZYUHIAEV-UHFFFAOYSA-N

$$$$

  Mrv2220 08292413132D          

 17 18  0  0  0  0            999 V2000
    1.8414   -0.9355    0.0000 O   0  0  0  0  0  0  0  0  0  0  0  0
    1.4289   -1.6500    0.0000 P   0  0  0  0  0  0  0  0  0  0  0  0
    1.0164   -2.3645    0.0000 O   0  0  0  0  0  0  0  0  0  0  0  0
    2.1434   -2.0625    0.0000 O   0  0  0  0  0  0  0  0  0  0  0  0
    2.1434   -2.8875    0.0000 C   0  0  0  0  0  0  0  0  0  0  0  0
    2.8579   -3.3000    0.0000 C   0  0  0  0  0  0  0  0  0  0  0  0
    2.8579   -4.1250    0.0000 C   0  0  0  0  0  0  0  0  0  0  0  0
    2.1434   -4.5375    0.0000 C   0  0  0  0  0  0  0  0  0  0  0  0
    1.4289   -4.1250    0.0000 C   0  0  0  0  0  0  0  0  0  0  0  0
    1.4289   -3.3000    0.0000 C   0  0  0  0  0  0  0  0  0  0  0  0
    0.7145   -1.2375    0.0000 O   0  0  0  0  0  0  0  0  0  0  0  0
    0.7145   -0.4125    0.0000 C   0  0  0  0  0  0  0  0  0  0  0  0
    0.0000    0.0000    0.0000 C   0  0  0  0  0  0  0  0  0  0  0  0
    0.0000    0.8250    0.0000 C   0  0  0  0  0  0  0  0  0  0  0  0
    0.7145    1.2375    0.0000 C   0  0  0  0  0  0  0  0  0  0  0  0
    1.4289    0.8250    0.0000 C   0  0  0  0  0  0  0  0  0  0  0  0
    1.4289    0.0000    0.0000 C   0  0  0  0  0  0  0  0  0  0  0  0
  1  2  2  0  0  0  0
  2  3  1  0  0  0  0
  2  4  1  0  0  0  0
  4  5  1  0  0  0  0
  5  6  4  0  0  0  0
  6  7  4  0  0  0  0
  7  8  4  0  0  0  0
  8  9  4  0  0  0  0
  9 10  4  0  0  0  0
  5 10  4  0  0  0  0
  2 11  1  0  0  0  0
 11 12  1  0  0  0  0
 12 13  4  0  0  0  0
 13 14  4  0  0  0  0
 14 15  4  0  0  0  0
 15 16  4  0  0  0  0
 16 17  4  0  0  0  0
 12 17  4  0  0  0  0
M  END
> <activity>
45.8

> <InChiKey>
ASMQGLCHMVWBQR-UHFFFAOYSA-N

$$$$

  Mrv2220 08292413132D          

 13 14  0  0  0  0            999 V2000
    2.1434   -2.8875    0.0000 C   0  0  0  0  0  0  0  0  0  0  0  0
    1.4289   -2.4750    0.0000 C   0  0  0  0  0  0  0  0  0  0  0  0
    1.4289   -1.6500    0.0000 C   0  0  0  0  0  0  0  0  0  0  0  0
    2.1434   -1.2375    0.0000 C   0  0  0  0  0  0  0  0  0  0  0  0
    2.1434   -0.4125    0.0000 N   0  0  0  0  0  0  0  0  0  0  0  0
    2.8579    0.0000    0.0000 C   0  0  0  0  0  0  0  0  0  0  0  0
    2.8579    0.8250    0.0000 C   0  0  0  0  0  0  0  0  0  0  0  0
    3.5724    1.2375    0.0000 C   0  0  0  0  0  0  0  0  0  0  0  0
    4.2868    0.8250    0.0000 C   0  0  0  0  0  0  0  0  0  0  0  0
    4.2868    0.0000    0.0000 C   0  0  0  0  0  0  0  0  0  0  0  0
    3.5724   -0.4125    0.0000 C   0  0  0  0  0  0  0  0  0  0  0  0
    2.8579   -1.6500    0.0000 C   0  0  0  0  0  0  0  0  0  0  0  0
    2.8579   -2.4750    0.0000 C   0  0  0  0  0  0  0  0  0  0  0  0
  1  2  4  0  0  0  0
  2  3  4  0  0  0  0
  3  4  4  0  0  0  0
  4  5  1  0  0  0  0
  5  6  1  0  0  0  0
  6  7  4  0  0  0  0
  7  8  4  0  0  0  0
  8  9  4  0  0  0  0
  9 10  4  0  0  0  0
 10 11  4  0  0  0  0
  6 11  4  0  0  0  0
  4 12  4  0  0  0  0
 12 13  4  0  0  0  0
  1 13  4  0  0  0  0
M  END
> <activity>
83.8

> <InChiKey>
DMBHHRLKUKUOEG-UHFFFAOYSA-N

$$$$

  Mrv2220 08292413132D          

 18 18  0  0  0  0            999 V2000
   -3.5724   -1.2375    0.0000 C   0  0  0  0  0  0  0  0  0  0  0  0
   -2.8579   -0.8250    0.0000 C   0  0  0  0  0  0  0  0  0  0  0  0
   -2.8579   -0.0000    0.0000 C   0  0  0  0  0  0  0  0  0  0  0  0
   -2.1434    0.4125    0.0000 O   0  0  0  0  0  0  0  0  0  0  0  0
   -2.1434    1.2375    0.0000 C   0  0  0  0  0  0  0  0  0  0  0  0
   -2.8579    1.6500    0.0000 O   0  0  0  0  0  0  0  0  0  0  0  0
   -1.4289    1.6500    0.0000 C   0  0  0  0  0  0  0  0  0  0  0  0
   -1.4289    2.4750    0.0000 C   0  0  0  0  0  0  0  0  0  0  0  0
   -0.7145    2.8875    0.0000 C   0  0  0  0  0  0  0  0  0  0  0  0
    0.0000    2.4750    0.0000 C   0  0  0  0  0  0  0  0  0  0  0  0
    0.7145    2.8875    0.0000 C   0  0  0  0  0  0  0  0  0  0  0  0
    0.7145    3.7125    0.0000 O   0  0  0  0  0  0  0  0  0  0  0  0
    1.4289    2.4750    0.0000 O   0  0  0  0  0  0  0  0  0  0  0  0
    2.1434    2.8875    0.0000 C   0  0  0  0  0  0  0  0  0  0  0  0
    2.8579    2.4750    0.0000 C   0  0  0  0  0  0  0  0  0  0  0  0
    3.5724    2.8875    0.0000 C   0  0  0  0  0  0  0  0  0  0  0  0
    0.0000    1.6500    0.0000 N   0  0  0  0  0  0  0  0  0  0  0  0
   -0.7145    1.2375    0.0000 C   0  0  0  0  0  0  0  0  0  0  0  0
  1  2  1  0  0  0  0
  2  3  1  0  0  0  0
  3  4  1  0  0  0  0
  4  5  1  0  0  0  0
  5  6  2  0  0  0  0
  5  7  1  0  0  0  0
  7  8  4  0  0  0  0
  8  9  4  0  0  0  0
  9 10  4  0  0  0  0
 10 11  1  0  0  0  0
 11 12  2  0  0  0  0
 11 13  1  0  0  0  0
 13 14  1  0  0  0  0
 14 15  1  0  0  0  0
 15 16  1  0  0  0  0
 10 17  4  0  0  0  0
 17 18  4  0  0  0  0
  7 18  4  0  0  0  0
M  END
> <activity>
33.2

> <InChiKey>
IITCWRFYJWUUPC-UHFFFAOYSA-N

$$$$

  Mrv2220 08292413132D          

 25 25  0  0  0  0            999 V2000
    0.0000    3.3000    0.0000 C   0  0  0  0  0  0  0  0  0  0  0  0
    0.0000    2.4750    0.0000 S   0  0  0  0  0  0  0  0  0  0  0  0
    0.7145    2.0625    0.0000 C   0  0  0  0  0  0  0  0  0  0  0  0
    1.4289    2.4750    0.0000 O   0  0  0  0  0  0  0  0  0  0  0  0
    0.7145    1.2375    0.0000 C   0  0  0  0  0  0  0  0  0  0  0  0
    1.4289    0.8250    0.0000 C   0  0  0  0  0  0  0  0  0  0  0  0
    2.1434    1.2375    0.0000 C   0  0  0  0  0  0  0  0  0  0  0  0
    2.8579    0.8250    0.0000 F   0  0  0  0  0  0  0  0  0  0  0  0
    2.1434    2.0625    0.0000 F   0  0  0  0  0  0  0  0  0  0  0  0
    1.4289   -0.0000    0.0000 N   0  0  0  0  0  0  0  0  0  0  0  0
    0.7145   -0.4125    0.0000 C   0  0  0  0  0  0  0  0  0  0  0  0
    0.7145   -1.2375    0.0000 C   0  0  0  0  0  0  0  0  0  0  0  0
    0.7145   -2.0625    0.0000 F   0  0  0  0  0  0  0  0  0  0  0  0
   -0.1105   -1.2375    0.0000 F   0  0  0  0  0  0  0  0  0  0  0  0
    1.5395   -1.2375    0.0000 F   0  0  0  0  0  0  0  0  0  0  0  0
    0.0000    0.0000    0.0000 C   0  0  0  0  0  0  0  0  0  0  0  0
   -0.7145   -0.4125    0.0000 C   0  0  0  0  0  0  0  0  0  0  0  0
   -0.7145   -1.2375    0.0000 O   0  0  0  0  0  0  0  0  0  0  0  0
   -1.4289    0.0000    0.0000 S   0  0  0  0  0  0  0  0  0  0  0  0
   -2.1434   -0.4125    0.0000 C   0  0  0  0  0  0  0  0  0  0  0  0
    0.0000    0.8250    0.0000 C   0  0  0  0  0  0  0  0  0  0  0  0
   -0.7145    1.2375    0.0000 C   0  0  0  0  0  0  0  0  0  0  0  0
   -0.7145    2.0625    0.0000 C   0  0  0  0  0  0  0  0  0  0  0  0
   -1.4289    2.4750    0.0000 C   0  0  0  0  0  0  0  0  0  0  0  0
   -0.3789    2.8162    0.0000 C   0  0  0  0  0  0  0  0  0  0  0  0
  1  2  1  0  0  0  0
  2  3  1  0  0  0  0
  3  4  2  0  0  0  0
  3  5  1  0  0  0  0
  5  6  4  0  0  0  0
  6  7  1  0  0  0  0
  7  8  1  0  0  0  0
  7  9  1  0  0  0  0
  6 10  4  0  0  0  0
 10 11  4  0  0  0  0
 11 12  1  0  0  0  0
 12 13  1  0  0  0  0
 12 14  1  0  0  0  0
 12 15  1  0  0  0  0
 11 16  4  0  0  0  0
 16 17  1  0  0  0  0
 17 18  2  0  0  0  0
 17 19  1  0  0  0  0
 19 20  1  0  0  0  0
 16 21  4  0  0  0  0
  5 21  4  0  0  0  0
 21 22  1  0  0  0  0
 22 23  1  0  0  0  0
 23 24  1  0  0  0  0
 23 25  1  0  0  0  0
M  END
> <activity>
44.8

> <InChiKey>
YUBJPYNSGLJZPQ-UHFFFAOYSA-N

$$$$

  Mrv2220 08292413132D          

 14 14  0  0  0  0            999 V2000
   -0.7145    3.7125    0.0000 C   0  0  0  0  0  0  0  0  0  0  0  0
    0.0000    3.3000    0.0000 N   0  0  0  0  0  0  0  0  0  0  0  0
    0.7145    3.7125    0.0000 C   0  0  0  0  0  0  0  0  0  0  0  0
    0.0000    2.4750    0.0000 C   0  0  0  0  0  0  0  0  0  0  0  0
   -0.7145    2.0625    0.0000 O   0  0  0  0  0  0  0  0  0  0  0  0
    0.7145    2.0625    0.0000 N   0  0  0  0  0  0  0  0  0  0  0  0
    0.7145    1.2375    0.0000 C   0  0  0  0  0  0  0  0  0  0  0  0
    1.4289    0.8250    0.0000 C   0  0  0  0  0  0  0  0  0  0  0  0
    1.4289   -0.0000    0.0000 C   0  0  0  0  0  0  0  0  0  0  0  0
    0.7145   -0.4125    0.0000 C   0  0  0  0  0  0  0  0  0  0  0  0
    0.7145   -1.2375    0.0000 Cl  0  0  0  0  0  0  0  0  0  0  0  0
    0.0000    0.0000    0.0000 C   0  0  0  0  0  0  0  0  0  0  0  0
   -0.7145   -0.4125    0.0000 Cl  0  0  0  0  0  0  0  0  0  0  0  0
    0.0000    0.8250    0.0000 C   0  0  0  0  0  0  0  0  0  0  0  0
  1  2  1  0  0  0  0
  2  3  1  0  0  0  0
  2  4  1  0  0  0  0
  4  5  2  0  0  0  0
  4  6  1  0  0  0  0
  6  7  1  0  0  0  0
  7  8  4  0  0  0  0
  8  9  4  0  0  0  0
  9 10  4  0  0  0  0
 10 11  1  0  0  0  0
 10 12  4  0  0  0  0
 12 13  1  0  0  0  0
 12 14  4  0  0  0  0
  7 14  4  0  0  0  0
M  END
> <activity>
34.4

> <InChiKey>
XMTQQYYKAHVGBJ-UHFFFAOYSA-N

$$$$

  Mrv2220 08292413132D          

  8  8  0  0  0  0            999 V2000
    0.0000    2.4750    0.0000 C   0  0  0  0  0  0  0  0  0  0  0  0
    0.7145    2.0625    0.0000 C   0  0  0  0  0  0  0  0  0  0  0  0
    0.7145    1.2375    0.0000 C   0  0  0  0  0  0  0  0  0  0  0  0
    1.4289    0.8250    0.0000 C   0  0  0  0  0  0  0  0  0  0  0  0
    1.4289   -0.0000    0.0000 C   0  0  0  0  0  0  0  0  0  0  0  0
    0.7145   -0.4125    0.0000 C   0  0  0  0  0  0  0  0  0  0  0  0
    0.0000    0.0000    0.0000 C   0  0  0  0  0  0  0  0  0  0  0  0
    0.0000    0.8250    0.0000 C   0  0  0  0  0  0  0  0  0  0  0  0
  1  2  2  0  0  0  0
  2  3  1  0  0  0  0
  3  4  4  0  0  0  0
  4  5  4  0  0  0  0
  5  6  4  0  0  0  0
  6  7  4  0  0  0  0
  7  8  4  0  0  0  0
  3  8  4  0  0  0  0
M  END
> <activity>
23.8

> <InChiKey>
PPBRXRYQALVLMV-UHFFFAOYSA-N

$$$$

  Mrv2220 08292413132D          

 34 35  0  0  0  0            999 V2000
   -0.5984   -4.7450    0.0000 C   0  0  0  0  0  0  0  0  0  0  0  0
   -0.3162   -3.9697    0.0000 C   0  0  0  0  0  0  0  0  0  0  0  0
   -0.8465   -3.3378    0.0000 O   0  0  0  0  0  0  0  0  0  0  0  0
    0.4963   -3.8265    0.0000 O   0  0  0  0  0  0  0  0  0  0  0  0
    0.7784   -3.0512    0.0000 C   0  0  0  0  0  0  0  0  0  0  0  0
    1.5909   -2.9080    0.0000 C   0  0  0  0  0  0  0  0  0  0  0  0
    2.1212   -3.5400    0.0000 C   0  0  0  0  0  0  0  0  0  0  0  0
    1.8731   -2.1327    0.0000 C   0  0  0  0  0  0  0  0  0  0  0  0
    2.6855   -1.9895    0.0000 C   0  0  0  0  0  0  0  0  0  0  0  0
    1.3428   -1.5007    0.0000 C   0  0  0  0  0  0  0  0  0  0  0  0
    0.5303   -1.6440    0.0000 C   0  0  0  0  0  0  0  0  0  0  0  0
    0.2481   -2.4192    0.0000 C   0  0  0  0  0  0  0  0  0  0  0  0
   -0.5643   -2.5625    0.0000 C   0  0  0  0  0  0  0  0  0  0  0  0
    0.0000   -1.0120    0.0000 C   0  0  0  0  0  0  0  0  0  0  0  0
    0.2822   -0.2368    0.0000 C   0  0  0  0  0  0  0  0  0  0  0  0
    1.0946   -0.0935    0.0000 C   0  0  0  0  0  0  0  0  0  0  0  0
    0.8125    0.6817    0.0000 C   0  0  0  0  0  0  0  0  0  0  0  0
    1.8091    0.3190    0.0000 C   0  0  0  0  0  0  0  0  0  0  0  0
    2.5236   -0.0935    0.0000 C   0  0  0  0  0  0  0  0  0  0  0  0
    3.2380    0.3190    0.0000 C   0  0  0  0  0  0  0  0  0  0  0  0
    3.9525   -0.0935    0.0000 C   0  0  0  0  0  0  0  0  0  0  0  0
    3.9525   -0.9185    0.0000 C   0  0  0  0  0  0  0  0  0  0  0  0
    4.6670    0.3190    0.0000 C   0  0  0  0  0  0  0  0  0  0  0  0
    5.3815   -0.0935    0.0000 C   0  0  0  0  0  0  0  0  0  0  0  0
    6.0959    0.3190    0.0000 C   0  0  0  0  0  0  0  0  0  0  0  0
    6.8104   -0.0935    0.0000 C   0  0  0  0  0  0  0  0  0  0  0  0
    6.8104   -0.9185    0.0000 C   0  0  0  0  0  0  0  0  0  0  0  0
    7.5249    0.3190    0.0000 C   0  0  0  0  0  0  0  0  0  0  0  0
    8.2393   -0.0935    0.0000 C   0  0  0  0  0  0  0  0  0  0  0  0
    8.9538    0.3190    0.0000 C   0  0  0  0  0  0  0  0  0  0  0  0
    9.6683   -0.0935    0.0000 C   0  0  0  0  0  0  0  0  0  0  0  0
   10.3828    0.3190    0.0000 C   0  0  0  0  0  0  0  0  0  0  0  0
    9.6683   -0.9185    0.0000 C   0  0  0  0  0  0  0  0  0  0  0  0
    1.6249   -0.7255    0.0000 O   0  0  0  0  0  0  0  0  0  0  0  0
  1  2  1  0  0  0  0
  2  3  2  0  0  0  0
  2  4  1  0  0  0  0
  4  5  1  0  0  0  0
  5  6  4  0  0  0  0
  6  7  1  0  0  0  0
  6  8  4  0  0  0  0
  8  9  1  0  0  0  0
  8 10  4  0  0  0  0
 10 11  4  0  0  0  0
 11 12  4  0  0  0  0
  5 12  4  0  0  0  0
 12 13  1  0  0  0  0
 11 14  1  0  0  0  0
 14 15  1  0  0  0  0
 15 16  1  0  0  0  0
 16 17  1  0  0  0  0
 16 18  1  0  0  0  0
 18 19  1  0  0  0  0
 19 20  1  0  0  0  0
 20 21  1  0  0  0  0
 21 22  1  0  0  0  0
 21 23  1  0  0  0  0
 23 24  1  0  0  0  0
 24 25  1  0  0  0  0
 25 26  1  0  0  0  0
 26 27  1  0  0  0  0
 26 28  1  0  0  0  0
 28 29  1  0  0  0  0
 29 30  1  0  0  0  0
 30 31  1  0  0  0  0
 31 32  1  0  0  0  0
 31 33  1  0  0  0  0
 16 34  1  0  0  0  0
 10 34  1  0  0  0  0
M  END
> <activity>
-3.7

> <InChiKey>
ZAKOWWREFLAJOT-UHFFFAOYSA-N

$$$$

  Mrv2220 08292413132D          

 28 27  0  0  0  0            999 V2000
   -0.1496   -4.6581    0.0000 C   0  0  0  0  0  0  0  0  0  0  0  0
    0.6430   -4.4293    0.0000 C   0  0  0  0  0  0  0  0  0  0  0  0
    1.2375   -5.0013    0.0000 C   0  0  0  0  0  0  0  0  0  0  0  0
    2.0301   -4.7725    0.0000 C   0  0  0  0  0  0  0  0  0  0  0  0
    2.6246   -5.3445    0.0000 C   0  0  0  0  0  0  0  0  0  0  0  0
    2.4265   -6.1454    0.0000 C   0  0  0  0  0  0  0  0  0  0  0  0
    3.0209   -6.7174    0.0000 C   0  0  0  0  0  0  0  0  0  0  0  0
    3.4172   -5.1157    0.0000 C   0  0  0  0  0  0  0  0  0  0  0  0
    4.0117   -5.6877    0.0000 O   0  0  0  0  0  0  0  0  0  0  0  0
    4.8044   -5.4589    0.0000 C   0  0  0  0  0  0  0  0  0  0  0  0
    5.0025   -4.6581    0.0000 O   0  0  0  0  0  0  0  0  0  0  0  0
    5.3988   -6.0310    0.0000 C   0  0  0  0  0  0  0  0  0  0  0  0
    6.1915   -5.8021    0.0000 C   0  0  0  0  0  0  0  0  0  0  0  0
    6.7859   -6.3742    0.0000 C   0  0  0  0  0  0  0  0  0  0  0  0
    6.5878   -7.1750    0.0000 O   0  0  0  0  0  0  0  0  0  0  0  0
    7.5786   -6.1454    0.0000 O   0  0  0  0  0  0  0  0  0  0  0  0
    8.1731   -6.7174    0.0000 C   0  0  0  0  0  0  0  0  0  0  0  0
    8.9657   -6.4886    0.0000 C   0  0  0  0  0  0  0  0  0  0  0  0
    9.1638   -5.6877    0.0000 C   0  0  0  0  0  0  0  0  0  0  0  0
    9.9565   -5.4589    0.0000 C   0  0  0  0  0  0  0  0  0  0  0  0
    9.5602   -7.0606    0.0000 C   0  0  0  0  0  0  0  0  0  0  0  0
   10.3528   -6.8318    0.0000 C   0  0  0  0  0  0  0  0  0  0  0  0
   10.9473   -7.4038    0.0000 C   0  0  0  0  0  0  0  0  0  0  0  0
   11.7399   -7.1750    0.0000 C   0  0  0  0  0  0  0  0  0  0  0  0
    6.3896   -5.0013    0.0000 S   0  0  0  0  0  0  0  0  0  0  0  0
    7.1905   -5.1995    0.0000 O   0  0  0  0  0  0  0  0  0  0  0  0
    5.5888   -4.8031    0.0000 O   0  0  0  0  0  0  0  0  0  0  0  0
    6.5878   -4.2004    0.0000 O   0  0  0  0  0  0  0  0  0  0  0  0
  1  2  1  0  0  0  0
  2  3  1  0  0  0  0
  3  4  1  0  0  0  0
  4  5  1  0  0  0  0
  5  6  1  0  0  0  0
  6  7  1  0  0  0  0
  5  8  1  0  0  0  0
  8  9  1  0  0  0  0
  9 10  1  0  0  0  0
 10 11  2  0  0  0  0
 10 12  1  0  0  0  0
 12 13  1  0  0  0  0
 13 14  1  0  0  0  0
 14 15  2  0  0  0  0
 14 16  1  0  0  0  0
 16 17  1  0  0  0  0
 17 18  1  0  0  0  0
 18 19  1  0  0  0  0
 19 20  1  0  0  0  0
 18 21  1  0  0  0  0
 21 22  1  0  0  0  0
 22 23  1  0  0  0  0
 23 24  1  0  0  0  0
 13 25  1  0  0  0  0
 25 26  2  0  0  0  0
 25 27  2  0  0  0  0
 25 28  1  0  0  0  0
M  END
> <activity>
104.7

> <InChiKey>
HNSDLXPSAYFUHK-UHFFFAOYSA-N

$$$$

  Mrv2220 08292413132D          

 18 18  0  0  0  0            999 V2000
    3.5724   -7.8375    0.0000 C   0  0  0  0  0  0  0  0  0  0  0  0
    4.2868   -7.4250    0.0000 C   0  0  0  0  0  0  0  0  0  0  0  0
    5.0013   -7.8375    0.0000 C   0  0  0  0  0  0  0  0  0  0  0  0
    5.7158   -7.4250    0.0000 C   0  0  0  0  0  0  0  0  0  0  0  0
    6.4302   -7.8375    0.0000 C   0  0  0  0  0  0  0  0  0  0  0  0
    7.1447   -7.4250    0.0000 C   0  0  0  0  0  0  0  0  0  0  0  0
    7.8592   -7.8375    0.0000 C   0  0  0  0  0  0  0  0  0  0  0  0
    8.5737   -7.4250    0.0000 C   0  0  0  0  0  0  0  0  0  0  0  0
    9.2881   -7.8375    0.0000 C   0  0  0  0  0  0  0  0  0  0  0  0
   10.0026   -7.4250    0.0000 C   0  0  0  0  0  0  0  0  0  0  0  0
   10.7171   -7.8375    0.0000 C   0  0  0  0  0  0  0  0  0  0  0  0
   11.4315   -7.4250    0.0000 C   0  0  0  0  0  0  0  0  0  0  0  0
   12.1460   -7.8375    0.0000 C   0  0  0  0  0  0  0  0  0  0  0  0
   12.8605   -7.4250    0.0000 C   0  0  0  0  0  0  0  0  0  0  0  0
   13.5749   -7.8375    0.0000 C   0  0  0  0  0  0  0  0  0  0  0  0
   13.5749   -8.6625    0.0000 C   0  0  0  0  0  0  0  0  0  0  0  0
   12.8605   -9.0750    0.0000 C   0  0  0  0  0  0  0  0  0  0  0  0
   12.1460   -8.6625    0.0000 C   0  0  0  0  0  0  0  0  0  0  0  0
  1  2  1  0  0  0  0
  2  3  1  0  0  0  0
  3  4  1  0  0  0  0
  4  5  1  0  0  0  0
  5  6  1  0  0  0  0
  6  7  1  0  0  0  0
  7  8  1  0  0  0  0
  8  9  1  0  0  0  0
  9 10  1  0  0  0  0
 10 11  1  0  0  0  0
 11 12  1  0  0  0  0
 12 13  1  0  0  0  0
 13 14  4  0  0  0  0
 14 15  4  0  0  0  0
 15 16  4  0  0  0  0
 16 17  4  0  0  0  0
 17 18  4  0  0  0  0
 13 18  4  0  0  0  0
M  END
> <activity>
-13.6

> <InChiKey>
KWKXNDCHNDYVRT-UHFFFAOYSA-N

$$$$

  Mrv2220 08292413132D          

 22 22  0  0  0  0            999 V2000
   -3.5724   -7.0125    0.0000 C   0  0  0  0  0  0  0  0  0  0  0  0
   -2.8579   -7.4250    0.0000 C   0  0  0  0  0  0  0  0  0  0  0  0
   -2.1434   -7.0125    0.0000 C   0  0  0  0  0  0  0  0  0  0  0  0
   -1.4289   -7.4250    0.0000 C   0  0  0  0  0  0  0  0  0  0  0  0
   -0.7145   -7.0125    0.0000 C   0  0  0  0  0  0  0  0  0  0  0  0
    0.0000   -7.4250    0.0000 C   0  0  0  0  0  0  0  0  0  0  0  0
    0.7145   -7.0125    0.0000 C   0  0  0  0  0  0  0  0  0  0  0  0
    1.4289   -7.4250    0.0000 C   0  0  0  0  0  0  0  0  0  0  0  0
    2.1434   -7.0125    0.0000 C   0  0  0  0  0  0  0  0  0  0  0  0
    2.8579   -7.4250    0.0000 C   0  0  0  0  0  0  0  0  0  0  0  0
    3.5724   -7.0125    0.0000 C   0  0  0  0  0  0  0  0  0  0  0  0
    4.2868   -7.4250    0.0000 C   0  0  0  0  0  0  0  0  0  0  0  0
    5.0013   -7.0125    0.0000 C   0  0  0  0  0  0  0  0  0  0  0  0
    5.0013   -6.1875    0.0000 C   0  0  0  0  0  0  0  0  0  0  0  0
    5.7158   -5.7750    0.0000 C   0  0  0  0  0  0  0  0  0  0  0  0
    6.4302   -6.1875    0.0000 C   0  0  0  0  0  0  0  0  0  0  0  0
    6.4302   -7.0125    0.0000 C   0  0  0  0  0  0  0  0  0  0  0  0
    7.1447   -7.4250    0.0000 S   0  0  0  0  0  0  0  0  0  0  0  0
    7.8592   -7.8375    0.0000 O   0  0  0  0  0  0  0  0  0  0  0  0
    6.7322   -8.1395    0.0000 O   0  0  0  0  0  0  0  0  0  0  0  0
    7.5572   -6.7105    0.0000 O   0  0  0  0  0  0  0  0  0  0  0  0
    5.7158   -7.4250    0.0000 C   0  0  0  0  0  0  0  0  0  0  0  0
  1  2  1  0  0  0  0
  2  3  1  0  0  0  0
  3  4  1  0  0  0  0
  4  5  1  0  0  0  0
  5  6  1  0  0  0  0
  6  7  1  0  0  0  0
  7  8  1  0  0  0  0
  8  9  1  0  0  0  0
  9 10  1  0  0  0  0
 10 11  1  0  0  0  0
 11 12  1  0  0  0  0
 12 13  1  0  0  0  0
 13 14  4  0  0  0  0
 14 15  4  0  0  0  0
 15 16  4  0  0  0  0
 16 17  4  0  0  0  0
 17 18  1  0  0  0  0
 18 19  2  0  0  0  0
 18 20  2  0  0  0  0
 18 21  1  0  0  0  0
 17 22  4  0  0  0  0
 13 22  4  0  0  0  0
M  END
> <activity>
101.8

> <InChiKey>
HRPQWSOMACYCRG-UHFFFAOYSA-N

$$$$

  Mrv2220 08292413132D          

 11 11  0  0  0  0            999 V2000
   -0.7145    3.7125    0.0000 O   0  0  0  0  0  0  0  0  0  0  0  0
    0.0000    3.3000    0.0000 C   0  0  0  0  0  0  0  0  0  0  0  0
    0.7145    3.7125    0.0000 O   0  0  0  0  0  0  0  0  0  0  0  0
    0.0000    2.4750    0.0000 C   0  0  0  0  0  0  0  0  0  0  0  0
    0.7145    2.0625    0.0000 C   0  0  0  0  0  0  0  0  0  0  0  0
    0.7145    1.2375    0.0000 C   0  0  0  0  0  0  0  0  0  0  0  0
    1.4289    0.8250    0.0000 C   0  0  0  0  0  0  0  0  0  0  0  0
    1.4289   -0.0000    0.0000 C   0  0  0  0  0  0  0  0  0  0  0  0
    0.7145   -0.4125    0.0000 C   0  0  0  0  0  0  0  0  0  0  0  0
    0.0000    0.0000    0.0000 C   0  0  0  0  0  0  0  0  0  0  0  0
    0.0000    0.8250    0.0000 C   0  0  0  0  0  0  0  0  0  0  0  0
  1  2  2  0  0  0  0
  2  3  1  0  0  0  0
  4  2  1  4  0  0  0
  4  5  2  0  0  0  0
  5  6  1  0  0  0  0
  6  7  4  0  0  0  0
  7  8  4  0  0  0  0
  8  9  4  0  0  0  0
  9 10  4  0  0  0  0
 10 11  4  0  0  0  0
  6 11  4  0  0  0  0
M  END
> <activity>
53.5

> <InChiKey>
WBYWAXJHAXSJNI-UHFFFAOYSA-N

$$$$

  Mrv2220 08292413132D          

 13 14  0  0  0  0            999 V2000
   -1.4289   -0.0000    0.0000 O   0  0  0  0  0  0  0  0  0  0  0  0
   -0.7145   -0.4125    0.0000 C   0  0  0  0  0  0  0  0  0  0  0  0
   -0.7145   -1.2375    0.0000 O   0  0  0  0  0  0  0  0  0  0  0  0
   -0.0000    0.0000    0.0000 C   0  0  0  0  0  0  0  0  0  0  0  0
    0.7145   -0.4125    0.0000 C   0  0  0  0  0  0  0  0  0  0  0  0
    1.4289    0.0000    0.0000 C   0  0  0  0  0  0  0  0  0  0  0  0
    1.4289    0.8250    0.0000 C   0  0  0  0  0  0  0  0  0  0  0  0
    0.7145    1.2375    0.0000 C   0  0  0  0  0  0  0  0  0  0  0  0
    0.5082    0.4125    0.0000 O   0  0  0  0  0  0  0  0  0  0  0  0
    0.0000    0.8250    0.0000 C   0  0  0  0  0  0  0  0  0  0  0  0
   -0.7145    1.2375    0.0000 C   0  0  0  0  0  0  0  0  0  0  0  0
   -1.4289    0.8250    0.0000 O   0  0  0  0  0  0  0  0  0  0  0  0
   -0.7145    2.0625    0.0000 O   0  0  0  0  0  0  0  0  0  0  0  0
  1  2  2  0  0  0  0
  2  3  1  0  0  0  0
  2  4  1  0  0  0  0
  4  5  1  0  0  0  0
  5  6  1  0  0  0  0
  6  7  1  0  0  0  0
  7  8  1  0  0  0  0
  8  9  1  0  0  0  0
  5  9  1  0  0  0  0
  8 10  1  0  0  0  0
  4 10  1  0  0  0  0
 10 11  1  0  0  0  0
 11 12  2  0  0  0  0
 11 13  1  0  0  0  0
M  END
> <activity>
-3.4

> <InChiKey>
GXEKYRXVRROBEV-UHFFFAOYSA-N

$$$$

  Mrv2220 08292413132D          

 21 22  0  0  0  0            999 V2000
    2.4454    1.3184    0.0000 C   0  0  0  0  0  0  0  0  0  0  0  0
    2.8579    0.6039    0.0000 C   0  0  0  0  0  0  0  0  0  0  0  0
    2.4454   -0.1105    0.0000 O   0  0  0  0  0  0  0  0  0  0  0  0
    2.8579   -0.8250    0.0000 P   0  0  0  0  0  0  0  0  0  0  0  0
    3.2704   -1.5395    0.0000 S   0  0  0  0  0  0  0  0  0  0  0  0
    2.1434   -1.2375    0.0000 O   0  0  0  0  0  0  0  0  0  0  0  0
    2.1434   -2.0625    0.0000 C   0  0  0  0  0  0  0  0  0  0  0  0
    2.8579   -2.4750    0.0000 C   0  0  0  0  0  0  0  0  0  0  0  0
    2.8579   -3.3000    0.0000 C   0  0  0  0  0  0  0  0  0  0  0  0
    2.1434   -3.7125    0.0000 C   0  0  0  0  0  0  0  0  0  0  0  0
    2.1434   -4.5375    0.0000 N   0  3  0  0  0  0  0  0  0  0  0  0
    1.4289   -4.9500    0.0000 O   0  0  0  0  0  0  0  0  0  0  0  0
    2.8579   -4.9500    0.0000 O   0  5  0  0  0  0  0  0  0  0  0  0
    1.4289   -3.3000    0.0000 C   0  0  0  0  0  0  0  0  0  0  0  0
    1.4289   -2.4750    0.0000 C   0  0  0  0  0  0  0  0  0  0  0  0
    3.5724   -0.4125    0.0000 C   0  0  0  0  0  0  0  0  0  0  0  0
    3.5724    0.4125    0.0000 C   0  0  0  0  0  0  0  0  0  0  0  0
    4.2868    0.8250    0.0000 C   0  0  0  0  0  0  0  0  0  0  0  0
    5.0013    0.4125    0.0000 C   0  0  0  0  0  0  0  0  0  0  0  0
    5.0013   -0.4125    0.0000 C   0  0  0  0  0  0  0  0  0  0  0  0
    4.2868   -0.8250    0.0000 C   0  0  0  0  0  0  0  0  0  0  0  0
  1  2  1  0  0  0  0
  2  3  1  0  0  0  0
  3  4  1  0  0  0  0
  4  5  2  0  0  0  0
  4  6  1  0  0  0  0
  6  7  1  0  0  0  0
  7  8  4  0  0  0  0
  8  9  4  0  0  0  0
  9 10  4  0  0  0  0
 10 11  1  0  0  0  0
 11 12  2  0  0  0  0
 11 13  1  0  0  0  0
 10 14  4  0  0  0  0
 14 15  4  0  0  0  0
  7 15  4  0  0  0  0
  4 16  1  0  0  0  0
 16 17  4  0  0  0  0
 17 18  4  0  0  0  0
 18 19  4  0  0  0  0
 19 20  4  0  0  0  0
 20 21  4  0  0  0  0
 16 21  4  0  0  0  0
M  CHG  2  11   1  13  -1
M  END
> <activity>
78.6

> <InChiKey>
AIGRXSNSLVJMEA-UHFFFAOYSA-N

$$$$

  Mrv2220 08292413132D          

 23 26  0  0  0  0            999 V2000
    3.2424    0.8837    0.0000 F   0  0  0  0  0  0  0  0  0  0  0  0
    2.6104    0.3534    0.0000 C   0  0  0  0  0  0  0  0  0  0  0  0
    2.7537   -0.4591    0.0000 C   0  0  0  0  0  0  0  0  0  0  0  0
    2.1217   -0.9894    0.0000 C   0  0  0  0  0  0  0  0  0  0  0  0
    1.3465   -0.7072    0.0000 C   0  0  0  0  0  0  0  0  0  0  0  0
    0.7145   -1.2375    0.0000 C   0  0  0  0  0  0  0  0  0  0  0  0
    0.0825   -0.7072    0.0000 C   0  0  0  0  0  0  0  0  0  0  0  0
    0.2257    0.1053    0.0000 N   0  0  0  0  0  0  0  0  0  0  0  0
    0.9672    0.4669    0.0000 C   0  0  0  0  0  0  0  0  0  0  0  0
    0.8524    1.2839    0.0000 N   0  0  0  0  0  0  0  0  0  0  0  0
    0.0400    1.4272    0.0000 C   0  0  0  0  0  0  0  0  0  0  0  0
   -0.3473    0.6987    0.0000 N   0  0  0  0  0  0  0  0  0  0  0  0
    1.1270   -1.9520    0.0000 O   0  0  0  0  0  0  0  0  0  0  0  0
    0.3020   -1.9520    0.0000 C   0  0  0  0  0  0  0  0  0  0  0  0
   -0.4125   -2.3645    0.0000 C   0  0  0  0  0  0  0  0  0  0  0  0
   -0.4125   -3.1895    0.0000 C   0  0  0  0  0  0  0  0  0  0  0  0
   -1.1270   -3.6020    0.0000 C   0  0  0  0  0  0  0  0  0  0  0  0
   -1.8414   -3.1895    0.0000 C   0  0  0  0  0  0  0  0  0  0  0  0
   -1.8414   -2.3645    0.0000 C   0  0  0  0  0  0  0  0  0  0  0  0
   -1.1270   -1.9520    0.0000 C   0  0  0  0  0  0  0  0  0  0  0  0
   -1.1270   -1.1270    0.0000 Cl  0  0  0  0  0  0  0  0  0  0  0  0
    1.2032    0.1053    0.0000 C   0  0  0  0  0  0  0  0  0  0  0  0
    1.8352    0.6356    0.0000 C   0  0  0  0  0  0  0  0  0  0  0  0
  1  2  1  0  0  0  0
  2  3  4  0  0  0  0
  3  4  4  0  0  0  0
  4  5  4  0  0  0  0
  5  6  1  0  0  0  0
  6  7  1  0  0  0  0
  7  8  1  0  0  0  0
  8  9  4  0  0  0  0
  9 10  4  0  0  0  0
 10 11  4  0  0  0  0
 11 12  4  0  0  0  0
  8 12  4  0  0  0  0
  6 13  1  0  0  0  0
 13 14  1  0  0  0  0
  6 14  1  0  0  0  0
 14 15  1  0  0  0  0
 15 16  4  0  0  0  0
 16 17  4  0  0  0  0
 17 18  4  0  0  0  0
 18 19  4  0  0  0  0
 19 20  4  0  0  0  0
 15 20  4  0  0  0  0
 20 21  1  0  0  0  0
  5 22  4  0  0  0  0
 22 23  4  0  0  0  0
  2 23  4  0  0  0  0
M  END
> <activity>
62.2

> <InChiKey>
ZMYFCFLJBGAQRS-UHFFFAOYSA-N

$$$$

  Mrv2220 08292413132D          

 51 53  0  0  0  0            999 V2000
   -0.7145   -0.4125    0.0000 C   0  0  0  0  0  0  0  0  0  0  0  0
   -0.0000   -0.8250    0.0000 C   0  0  0  0  0  0  0  0  0  0  0  0
    0.7145   -0.4125    0.0000 C   0  0  0  0  0  0  0  0  0  0  0  0
    0.0000    0.0000    0.0000 O   0  0  0  0  0  0  0  0  0  0  0  0
    0.0000    0.8250    0.0000 C   0  0  0  0  0  0  0  0  0  0  0  0
   -0.7145    1.2375    0.0000 O   0  0  0  0  0  0  0  0  0  0  0  0
    0.7145    1.2375    0.0000 C   0  0  0  0  0  0  0  0  0  0  0  0
    0.2295    1.9049    0.0000 C   0  0  0  0  0  0  0  0  0  0  0  0
    1.4289    0.8250    0.0000 C   0  0  0  0  0  0  0  0  0  0  0  0
    1.4289    1.6500    0.0000 O   0  0  0  0  0  0  0  0  0  0  0  0
    0.7145    2.0625    0.0000 C   0  0  0  0  0  0  0  0  0  0  0  0
    0.7145    2.8875    0.0000 C   0  0  0  0  0  0  0  0  0  0  0  0
   -0.0000    3.3000    0.0000 C   0  0  0  0  0  0  0  0  0  0  0  0
    0.5303    3.9320    0.0000 C   0  0  0  0  0  0  0  0  0  0  0  0
   -0.5303    3.9320    0.0000 O   0  0  0  0  0  0  0  0  0  0  0  0
   -0.2481    4.7072    0.0000 C   0  0  0  0  0  0  0  0  0  0  0  0
   -0.7145    2.8875    0.0000 C   0  0  0  0  0  0  0  0  0  0  0  0
   -1.4289    3.3000    0.0000 O   0  0  0  0  0  0  0  0  0  0  0  0
   -0.7145    2.0625    0.0000 C   0  0  0  0  0  0  0  0  0  0  0  0
   -1.4289    1.6500    0.0000 C   0  0  0  0  0  0  0  0  0  0  0  0
   -0.0000    1.6500    0.0000 O   0  0  0  0  0  0  0  0  0  0  0  0
    2.1434    1.2375    0.0000 C   0  0  0  0  0  0  0  0  0  0  0  0
    2.1434    2.0625    0.0000 C   0  0  0  0  0  0  0  0  0  0  0  0
    2.8579    0.8250    0.0000 C   0  0  0  0  0  0  0  0  0  0  0  0
    3.5724    1.2375    0.0000 O   0  0  0  0  0  0  0  0  0  0  0  0
    3.5724    2.0625    0.0000 C   0  0  0  0  0  0  0  0  0  0  0  0
    2.8579    2.4750    0.0000 O   0  0  0  0  0  0  0  0  0  0  0  0
    2.8579    3.3000    0.0000 C   0  0  0  0  0  0  0  0  0  0  0  0
    2.1434    3.7125    0.0000 C   0  0  0  0  0  0  0  0  0  0  0  0
    3.5724    3.7125    0.0000 C   0  0  0  0  0  0  0  0  0  0  0  0
    4.2868    3.3000    0.0000 C   0  0  0  0  0  0  0  0  0  0  0  0
    5.0013    3.7125    0.0000 N   0  0  0  0  0  0  0  0  0  0  0  0
    5.0013    4.5375    0.0000 C   0  0  0  0  0  0  0  0  0  0  0  0
    5.7158    3.3000    0.0000 C   0  0  0  0  0  0  0  0  0  0  0  0
    4.2868    2.4750    0.0000 C   0  0  0  0  0  0  0  0  0  0  0  0
    5.0013    2.0625    0.0000 O   0  0  0  0  0  0  0  0  0  0  0  0
    2.8579    0.0000    0.0000 C   0  0  0  0  0  0  0  0  0  0  0  0
    3.3882    0.6320    0.0000 C   0  0  0  0  0  0  0  0  0  0  0  0
    3.6704    0.1433    0.0000 O   0  0  0  0  0  0  0  0  0  0  0  0
    3.5724   -0.4125    0.0000 C   0  0  0  0  0  0  0  0  0  0  0  0
    3.5724   -1.2375    0.0000 C   0  0  0  0  0  0  0  0  0  0  0  0
    4.2868   -1.6500    0.0000 C   0  0  0  0  0  0  0  0  0  0  0  0
    2.8579   -1.6500    0.0000 C   0  0  0  0  0  0  0  0  0  0  0  0
    2.8579   -2.4750    0.0000 O   0  0  0  0  0  0  0  0  0  0  0  0
    2.1434   -1.2375    0.0000 C   0  0  0  0  0  0  0  0  0  0  0  0
    2.1434   -0.4125    0.0000 C   0  0  0  0  0  0  0  0  0  0  0  0
    1.4289   -1.6500    0.0000 C   0  0  0  0  0  0  0  0  0  0  0  0
    1.4289   -2.4750    0.0000 O   0  0  0  0  0  0  0  0  0  0  0  0
    0.7145   -1.2375    0.0000 C   0  0  0  0  0  0  0  0  0  0  0  0
    0.2773   -1.9371    0.0000 C   0  0  0  0  0  0  0  0  0  0  0  0
   -0.1100   -1.2663    0.0000 O   0  0  0  0  0  0  0  0  0  0  0  0
  1  2  1  0  0  0  0
  2  3  1  0  0  0  0
  3  4  1  0  0  0  0
  4  5  1  0  0  0  0
  5  6  2  0  0  0  0
  5  7  1  0  0  0  0
  7  8  1  0  0  0  0
  7  9  1  0  0  0  0
  9 10  1  0  0  0  0
 10 11  1  0  0  0  0
 11 12  1  0  0  0  0
 12 13  1  0  0  0  0
 13 14  1  0  0  0  0
 13 15  1  0  0  0  0
 15 16  1  0  0  0  0
 13 17  1  0  0  0  0
 17 18  1  0  0  0  0
 17 19  1  0  0  0  0
 19 20  1  0  0  0  0
 19 21  1  0  0  0  0
 11 21  1  0  0  0  0
  9 22  1  0  0  0  0
 22 23  1  0  0  0  0
 22 24  1  0  0  0  0
 24 25  1  0  0  0  0
 25 26  1  0  0  0  0
 26 27  1  0  0  0  0
 27 28  1  0  0  0  0
 28 29  1  0  0  0  0
 28 30  1  0  0  0  0
 30 31  1  0  0  0  0
 31 32  1  0  0  0  0
 32 33  1  0  0  0  0
 32 34  1  0  0  0  0
 31 35  1  0  0  0  0
 26 35  1  0  0  0  0
 35 36  1  0  0  0  0
 24 37  1  0  0  0  0
 37 38  1  0  0  0  0
 37 39  1  0  0  0  0
 37 40  1  0  0  0  0
 40 41  1  0  0  0  0
 41 42  1  0  0  0  0
 41 43  1  0  0  0  0
 43 44  2  0  0  0  0
 43 45  1  0  0  0  0
 45 46  1  0  0  0  0
 45 47  1  0  0  0  0
 47 48  1  0  0  0  0
 47 49  1  0  0  0  0
  3 49  1  0  0  0  0
 49 50  1  0  0  0  0
 49 51  1  0  0  0  0
M  END
> <activity>
13.4

> <InChiKey>
ULGZDMOVFRHVEP-UHFFFAOYSA-N

$$$$

  Mrv2220 08292413132D          

 30 32  0  0  0  0            999 V2000
    0.7145   -2.6664    0.0000 C   0  0  0  0  0  0  0  0  0  0  0  0
    0.3020   -1.9520    0.0000 C   0  0  0  0  0  0  0  0  0  0  0  0
   -0.5230   -1.9520    0.0000 C   0  0  0  0  0  0  0  0  0  0  0  0
    0.7145   -1.2375    0.0000 C   0  0  0  0  0  0  0  0  0  0  0  0
    1.5395   -1.2375    0.0000 C   0  0  0  0  0  0  0  0  0  0  0  0
    1.9520   -0.5230    0.0000 O   0  0  0  0  0  0  0  0  0  0  0  0
    1.9520   -1.9520    0.0000 O   0  0  0  0  0  0  0  0  0  0  0  0
    2.7770   -1.9520    0.0000 C   0  0  0  0  0  0  0  0  0  0  0  0
    3.1895   -1.2375    0.0000 C   0  0  0  0  0  0  0  0  0  0  0  0
    3.6020   -0.5230    0.0000 N   0  0  0  0  0  0  0  0  0  0  0  0
    3.1895   -2.6664    0.0000 C   0  0  0  0  0  0  0  0  0  0  0  0
    4.0145   -2.6664    0.0000 C   0  0  0  0  0  0  0  0  0  0  0  0
    4.4270   -3.3809    0.0000 C   0  0  0  0  0  0  0  0  0  0  0  0
    4.0145   -4.0954    0.0000 C   0  0  0  0  0  0  0  0  0  0  0  0
    3.1895   -4.0954    0.0000 C   0  0  0  0  0  0  0  0  0  0  0  0
    2.7770   -4.8099    0.0000 O   0  0  0  0  0  0  0  0  0  0  0  0
    3.1895   -5.5243    0.0000 C   0  0  0  0  0  0  0  0  0  0  0  0
    4.0145   -5.5243    0.0000 C   0  0  0  0  0  0  0  0  0  0  0  0
    4.4270   -6.2388    0.0000 C   0  0  0  0  0  0  0  0  0  0  0  0
    4.0145   -6.9533    0.0000 C   0  0  0  0  0  0  0  0  0  0  0  0
    3.1895   -6.9533    0.0000 C   0  0  0  0  0  0  0  0  0  0  0  0
    2.7770   -6.2388    0.0000 C   0  0  0  0  0  0  0  0  0  0  0  0
    2.7770   -3.3809    0.0000 C   0  0  0  0  0  0  0  0  0  0  0  0
    0.3020   -0.5230    0.0000 C   0  0  0  0  0  0  0  0  0  0  0  0
   -0.5230   -0.5230    0.0000 C   0  0  0  0  0  0  0  0  0  0  0  0
   -0.9355    0.1914    0.0000 C   0  0  0  0  0  0  0  0  0  0  0  0
   -0.5230    0.9059    0.0000 C   0  0  0  0  0  0  0  0  0  0  0  0
   -0.9355    1.6204    0.0000 Cl  0  0  0  0  0  0  0  0  0  0  0  0
    0.3020    0.9059    0.0000 C   0  0  0  0  0  0  0  0  0  0  0  0
    0.7145    0.1914    0.0000 C   0  0  0  0  0  0  0  0  0  0  0  0
  1  2  1  0  0  0  0
  2  3  1  0  0  0  0
  2  4  1  0  0  0  0
  4  5  1  0  0  0  0
  5  6  2  0  0  0  0
  5  7  1  0  0  0  0
  7  8  1  0  0  0  0
  8  9  1  0  0  0  0
  9 10  3  0  0  0  0
  8 11  1  0  0  0  0
 11 12  4  0  0  0  0
 12 13  4  0  0  0  0
 13 14  4  0  0  0  0
 14 15  4  0  0  0  0
 15 16  1  0  0  0  0
 16 17  1  0  0  0  0
 17 18  4  0  0  0  0
 18 19  4  0  0  0  0
 19 20  4  0  0  0  0
 20 21  4  0  0  0  0
 21 22  4  0  0  0  0
 17 22  4  0  0  0  0
 15 23  4  0  0  0  0
 11 23  4  0  0  0  0
  4 24  1  0  0  0  0
 24 25  4  0  0  0  0
 25 26  4  0  0  0  0
 26 27  4  0  0  0  0
 27 28  1  0  0  0  0
 27 29  4  0  0  0  0
 29 30  4  0  0  0  0
 24 30  4  0  0  0  0
M  END
> <activity>
47.1

> <InChiKey>
NYPJDWWKZLNGGM-UHFFFAOYSA-N

$$$$

  Mrv2220 08292413132D          

 11 11  0  0  0  0            999 V2000
    0.0000    3.3000    0.0000 C   0  0  0  0  0  0  0  0  0  0  0  0
    0.0000    2.4750    0.0000 C   0  0  0  0  0  0  0  0  0  0  0  0
    0.7145    2.0625    0.0000 C   0  0  0  0  0  0  0  0  0  0  0  0
    0.7145    1.2375    0.0000 C   0  0  0  0  0  0  0  0  0  0  0  0
    1.4289    0.8250    0.0000 C   0  0  0  0  0  0  0  0  0  0  0  0
    1.4289   -0.0000    0.0000 C   0  0  0  0  0  0  0  0  0  0  0  0
    0.7145   -0.4125    0.0000 C   0  0  0  0  0  0  0  0  0  0  0  0
    0.7145   -1.2375    0.0000 O   0  0  0  0  0  0  0  0  0  0  0  0
    1.4289   -1.6500    0.0000 C   0  0  0  0  0  0  0  0  0  0  0  0
    0.0000    0.0000    0.0000 C   0  0  0  0  0  0  0  0  0  0  0  0
    0.0000    0.8250    0.0000 C   0  0  0  0  0  0  0  0  0  0  0  0
  1  2  2  0  0  0  0
  2  3  1  0  0  0  0
  3  4  1  0  0  0  0
  4  5  4  0  0  0  0
  5  6  4  0  0  0  0
  6  7  4  0  0  0  0
  7  8  1  0  0  0  0
  8  9  1  0  0  0  0
  7 10  4  0  0  0  0
 10 11  4  0  0  0  0
  4 11  4  0  0  0  0
M  END
> <activity>
21.6

> <InChiKey>
ZFMSMUAANRJZFM-UHFFFAOYSA-N

$$$$

  Mrv2220 08292413132D          

 21 24  0  0  0  0            999 V2000
    1.3895   -1.8497    0.0000 C   0  0  0  0  0  0  0  0  0  0  0  0
    1.7494   -2.5921    0.0000 C   0  0  0  0  0  0  0  0  0  0  0  0
    2.2812   -1.9614    0.0000 C   0  0  0  0  0  0  0  0  0  0  0  0
    3.0934   -2.1066    0.0000 C   0  0  0  0  0  0  0  0  0  0  0  0
    3.3737   -2.8825    0.0000 C   0  0  0  0  0  0  0  0  0  0  0  0
    4.1858   -3.0277    0.0000 C   0  0  0  0  0  0  0  0  0  0  0  0
    4.7176   -2.3970    0.0000 C   0  0  0  0  0  0  0  0  0  0  0  0
    5.5297   -2.5422    0.0000 C   0  0  0  0  0  0  0  0  0  0  0  0
    5.8100   -3.3182    0.0000 C   0  0  0  0  0  0  0  0  0  0  0  0
    6.6221   -3.4634    0.0000 O   0  0  0  0  0  0  0  0  0  0  0  0
    5.2782   -3.9489    0.0000 C   0  0  0  0  0  0  0  0  0  0  0  0
    4.4661   -3.8037    0.0000 C   0  0  0  0  0  0  0  0  0  0  0  0
    3.9343   -4.4344    0.0000 C   0  0  0  0  0  0  0  0  0  0  0  0
    3.1221   -4.2891    0.0000 C   0  0  0  0  0  0  0  0  0  0  0  0
    2.8418   -3.5132    0.0000 C   0  0  0  0  0  0  0  0  0  0  0  0
    2.0297   -3.3680    0.0000 C   0  0  0  0  0  0  0  0  0  0  0  0
    1.3784   -3.8744    0.0000 C   0  0  0  0  0  0  0  0  0  0  0  0
    0.6955   -3.4114    0.0000 C   0  0  0  0  0  0  0  0  0  0  0  0
   -0.0804   -3.6917    0.0000 O   0  0  0  0  0  0  0  0  0  0  0  0
    0.9249   -2.6189    0.0000 C   0  0  0  0  0  0  0  0  0  0  0  0
    0.4185   -1.9676    0.0000 O   0  0  0  0  0  0  0  0  0  0  0  0
  1  2  1  0  0  0  0
  2  3  1  0  0  0  0
  3  4  1  0  0  0  0
  4  5  1  0  0  0  0
  5  6  1  0  0  0  0
  6  7  4  0  0  0  0
  7  8  4  0  0  0  0
  8  9  4  0  0  0  0
  9 10  1  0  0  0  0
  9 11  4  0  0  0  0
 11 12  4  0  0  0  0
  6 12  4  0  0  0  0
 12 13  1  0  0  0  0
 13 14  1  0  0  0  0
 14 15  1  0  0  0  0
  5 15  1  0  0  0  0
 15 16  1  0  0  0  0
  2 16  1  0  0  0  0
 16 17  1  0  0  0  0
 17 18  1  0  0  0  0
 18 19  1  0  0  0  0
 18 20  1  0  0  0  0
  2 20  1  0  0  0  0
 20 21  1  0  0  0  0
M  END
> <activity>
29.7

> <InChiKey>
PROQIPRRNZUXQM-UHFFFAOYSA-N

$$$$

  Mrv2220 08292413132D          

 20 23  0  0  0  0            999 V2000
    1.3895   -1.8497    0.0000 C   0  0  0  0  0  0  0  0  0  0  0  0
    1.7494   -2.5921    0.0000 C   0  0  0  0  0  0  0  0  0  0  0  0
    2.2812   -1.9614    0.0000 C   0  0  0  0  0  0  0  0  0  0  0  0
    3.0934   -2.1066    0.0000 C   0  0  0  0  0  0  0  0  0  0  0  0
    3.3737   -2.8825    0.0000 C   0  0  0  0  0  0  0  0  0  0  0  0
    4.1858   -3.0277    0.0000 C   0  0  0  0  0  0  0  0  0  0  0  0
    4.7176   -2.3970    0.0000 C   0  0  0  0  0  0  0  0  0  0  0  0
    5.5297   -2.5422    0.0000 C   0  0  0  0  0  0  0  0  0  0  0  0
    5.8100   -3.3182    0.0000 C   0  0  0  0  0  0  0  0  0  0  0  0
    6.6221   -3.4634    0.0000 O   0  0  0  0  0  0  0  0  0  0  0  0
    5.2782   -3.9489    0.0000 C   0  0  0  0  0  0  0  0  0  0  0  0
    4.4661   -3.8037    0.0000 C   0  0  0  0  0  0  0  0  0  0  0  0
    3.9343   -4.4344    0.0000 C   0  0  0  0  0  0  0  0  0  0  0  0
    3.1221   -4.2891    0.0000 C   0  0  0  0  0  0  0  0  0  0  0  0
    2.8418   -3.5132    0.0000 C   0  0  0  0  0  0  0  0  0  0  0  0
    2.0297   -3.3680    0.0000 C   0  0  0  0  0  0  0  0  0  0  0  0
    1.3784   -3.8744    0.0000 C   0  0  0  0  0  0  0  0  0  0  0  0
    0.6955   -3.4114    0.0000 C   0  0  0  0  0  0  0  0  0  0  0  0
    0.9249   -2.6189    0.0000 C   0  0  0  0  0  0  0  0  0  0  0  0
    0.4185   -1.9676    0.0000 O   0  0  0  0  0  0  0  0  0  0  0  0
  1  2  1  0  0  0  0
  2  3  1  0  0  0  0
  3  4  1  0  0  0  0
  4  5  1  0  0  0  0
  5  6  1  0  0  0  0
  6  7  4  0  0  0  0
  7  8  4  0  0  0  0
  8  9  4  0  0  0  0
  9 10  1  0  0  0  0
  9 11  4  0  0  0  0
 11 12  4  0  0  0  0
  6 12  4  0  0  0  0
 12 13  1  0  0  0  0
 13 14  1  0  0  0  0
 14 15  1  0  0  0  0
  5 15  1  0  0  0  0
 15 16  1  0  0  0  0
  2 16  1  0  0  0  0
 16 17  1  0  0  0  0
 17 18  1  0  0  0  0
 18 19  1  0  0  0  0
  2 19  1  0  0  0  0
 19 20  2  0  0  0  0
M  END
> <activity>
15.3

> <InChiKey>
DNXHEGUUPJUMQT-UHFFFAOYSA-N

$$$$

  Mrv2220 08292413132D          

 19 20  0  0  0  0            999 V2000
   -1.4087    0.0165    0.0000 C   0  0  0  0  0  0  0  0  0  0  0  0
   -0.5837    0.0165    0.0000 C   0  0  0  0  0  0  0  0  0  0  0  0
   -0.1712   -0.6979    0.0000 O   0  0  0  0  0  0  0  0  0  0  0  0
    0.6538   -0.6979    0.0000 C   0  0  0  0  0  0  0  0  0  0  0  0
    1.1387   -0.0305    0.0000 O   0  0  0  0  0  0  0  0  0  0  0  0
    1.9233   -0.2854    0.0000 C   0  0  0  0  0  0  0  0  0  0  0  0
    2.6378    0.1271    0.0000 C   0  0  0  0  0  0  0  0  0  0  0  0
    3.3523   -0.2854    0.0000 C   0  0  0  0  0  0  0  0  0  0  0  0
    3.3523   -1.1104    0.0000 C   0  0  0  0  0  0  0  0  0  0  0  0
    4.0668   -1.5229    0.0000 O   0  0  0  0  0  0  0  0  0  0  0  0
    4.7812   -1.1104    0.0000 S   0  0  0  0  0  0  0  0  0  0  0  0
    5.4957   -0.6979    0.0000 C   0  0  0  0  0  0  0  0  0  0  0  0
    5.1937   -1.8249    0.0000 O   0  0  0  0  0  0  0  0  0  0  0  0
    4.3687   -0.3960    0.0000 O   0  0  0  0  0  0  0  0  0  0  0  0
    2.6378   -1.5229    0.0000 C   0  0  0  0  0  0  0  0  0  0  0  0
    1.9233   -1.1104    0.0000 C   0  0  0  0  0  0  0  0  0  0  0  0
    1.1387   -1.3654    0.0000 C   0  0  0  0  0  0  0  0  0  0  0  0
    1.3018   -2.1741    0.0000 C   0  0  0  0  0  0  0  0  0  0  0  0
    0.5314   -1.9238    0.0000 C   0  0  0  0  0  0  0  0  0  0  0  0
  1  2  1  0  0  0  0
  2  3  1  0  0  0  0
  3  4  1  0  0  0  0
  4  5  1  0  0  0  0
  5  6  1  0  0  0  0
  6  7  4  0  0  0  0
  7  8  4  0  0  0  0
  8  9  4  0  0  0  0
  9 10  1  0  0  0  0
 10 11  1  0  0  0  0
 11 12  1  0  0  0  0
 11 13  2  0  0  0  0
 11 14  2  0  0  0  0
  9 15  4  0  0  0  0
 15 16  4  0  0  0  0
  6 16  4  0  0  0  0
 16 17  1  0  0  0  0
  4 17  1  0  0  0  0
 17 18  1  0  0  0  0
 17 19  1  0  0  0  0
M  END
> <activity>
82.6

> <InChiKey>
IRCMYGHHKLLGHV-UHFFFAOYSA-N

$$$$

  Mrv2220 08292413132D          

 16 17  0  0  0  0            999 V2000
    2.8579    0.0000    0.0000 C   0  0  0  0  0  0  0  0  0  0  0  0
    3.5724    0.4125    0.0000 C   0  0  0  0  0  0  0  0  0  0  0  0
    4.2868    0.0000    0.0000 O   0  0  0  0  0  0  0  0  0  0  0  0
    5.0013    0.4125    0.0000 C   0  0  0  0  0  0  0  0  0  0  0  0
    5.0013    1.2375    0.0000 O   0  0  0  0  0  0  0  0  0  0  0  0
    5.7158    0.0000    0.0000 C   0  0  0  0  0  0  0  0  0  0  0  0
    6.4302    0.4125    0.0000 C   0  0  0  0  0  0  0  0  0  0  0  0
    6.4302    1.2375    0.0000 C   0  0  0  0  0  0  0  0  0  0  0  0
    7.1447    1.6500    0.0000 C   0  0  0  0  0  0  0  0  0  0  0  0
    7.8592    1.2375    0.0000 C   0  0  0  0  0  0  0  0  0  0  0  0
    7.8592    0.4125    0.0000 C   0  0  0  0  0  0  0  0  0  0  0  0
    8.5737    0.0000    0.0000 C   0  0  0  0  0  0  0  0  0  0  0  0
    8.5737   -0.8250    0.0000 C   0  0  0  0  0  0  0  0  0  0  0  0
    7.8592   -1.2375    0.0000 C   0  0  0  0  0  0  0  0  0  0  0  0
    7.1447   -0.8250    0.0000 C   0  0  0  0  0  0  0  0  0  0  0  0
    7.1447    0.0000    0.0000 C   0  0  0  0  0  0  0  0  0  0  0  0
  1  2  1  0  0  0  0
  2  3  1  0  0  0  0
  3  4  1  0  0  0  0
  4  5  2  0  0  0  0
  4  6  1  0  0  0  0
  6  7  1  0  0  0  0
  7  8  4  0  0  0  0
  8  9  4  0  0  0  0
  9 10  4  0  0  0  0
 10 11  4  0  0  0  0
 11 12  4  0  0  0  0
 12 13  4  0  0  0  0
 13 14  4  0  0  0  0
 14 15  4  0  0  0  0
 15 16  4  0  0  0  0
  7 16  4  0  0  0  0
 11 16  4  0  0  0  0
M  END
> <activity>
84.0

> <InChiKey>
XIDPSKQLXKCVQN-UHFFFAOYSA-N

$$$$

  Mrv2220 08292413132D          

 14 15  0  0  0  0            999 V2000
    2.1434    1.2375    0.0000 C   0  0  0  0  0  0  0  0  0  0  0  0
    1.4289    0.8250    0.0000 C   0  0  0  0  0  0  0  0  0  0  0  0
    1.4289    0.0000    0.0000 O   0  0  0  0  0  0  0  0  0  0  0  0
    0.7145   -0.4125    0.0000 C   0  0  0  0  0  0  0  0  0  0  0  0
    0.0000    0.0000    0.0000 O   0  0  0  0  0  0  0  0  0  0  0  0
    0.7145   -1.2375    0.0000 C   0  0  0  0  0  0  0  0  0  0  0  0
    1.1270   -1.9520    0.0000 O   0  0  0  0  0  0  0  0  0  0  0  0
    0.3020   -1.9520    0.0000 C   0  0  0  0  0  0  0  0  0  0  0  0
   -0.4125   -2.3645    0.0000 C   0  0  0  0  0  0  0  0  0  0  0  0
   -0.4125   -3.1895    0.0000 C   0  0  0  0  0  0  0  0  0  0  0  0
   -1.1270   -3.6020    0.0000 C   0  0  0  0  0  0  0  0  0  0  0  0
   -1.8414   -3.1895    0.0000 C   0  0  0  0  0  0  0  0  0  0  0  0
   -1.8414   -2.3645    0.0000 C   0  0  0  0  0  0  0  0  0  0  0  0
   -1.1270   -1.9520    0.0000 C   0  0  0  0  0  0  0  0  0  0  0  0
  1  2  1  0  0  0  0
  2  3  1  0  0  0  0
  3  4  1  0  0  0  0
  4  5  2  0  0  0  0
  4  6  1  0  0  0  0
  6  7  1  0  0  0  0
  7  8  1  0  0  0  0
  6  8  1  0  0  0  0
  8  9  1  0  0  0  0
  9 10  4  0  0  0  0
 10 11  4  0  0  0  0
 11 12  4  0  0  0  0
 12 13  4  0  0  0  0
 13 14  4  0  0  0  0
  9 14  4  0  0  0  0
M  END
> <activity>
40.1

> <InChiKey>
GOMAKLPNAAZVCJ-UHFFFAOYSA-N

$$$$

  Mrv2220 08292413132D          

 11 11  0  0  0  0            999 V2000
    0.0000    3.3000    0.0000 C   0  0  0  0  0  0  0  0  0  0  0  0
    0.0000    2.4750    0.0000 C   0  0  0  0  0  0  0  0  0  0  0  0
    0.7145    2.0625    0.0000 C   0  0  0  0  0  0  0  0  0  0  0  0
    1.4289    2.4750    0.0000 O   0  0  0  0  0  0  0  0  0  0  0  0
    0.7145    1.2375    0.0000 C   0  0  0  0  0  0  0  0  0  0  0  0
    1.4289    0.8250    0.0000 C   0  0  0  0  0  0  0  0  0  0  0  0
    1.4289   -0.0000    0.0000 C   0  0  0  0  0  0  0  0  0  0  0  0
    0.7145   -0.4125    0.0000 C   0  0  0  0  0  0  0  0  0  0  0  0
    0.7145   -1.2375    0.0000 Cl  0  0  0  0  0  0  0  0  0  0  0  0
    0.0000    0.0000    0.0000 C   0  0  0  0  0  0  0  0  0  0  0  0
    0.0000    0.8250    0.0000 C   0  0  0  0  0  0  0  0  0  0  0  0
  1  2  1  0  0  0  0
  2  3  1  0  0  0  0
  3  4  2  0  0  0  0
  3  5  1  0  0  0  0
  5  6  4  0  0  0  0
  6  7  4  0  0  0  0
  7  8  4  0  0  0  0
  8  9  1  0  0  0  0
  8 10  4  0  0  0  0
 10 11  4  0  0  0  0
  5 11  4  0  0  0  0
M  END
> <activity>
15.6

> <InChiKey>
ADCYRBXQAJXJTD-UHFFFAOYSA-N

$$$$

  Mrv2220 08292413132D          

  9  8  0  0  0  0            999 V2000
    4.6184    0.1914    0.0000 C   0  0  0  0  0  0  0  0  0  0  0  0
    3.9039    0.6039    0.0000 C   0  0  0  0  0  0  0  0  0  0  0  0
    3.9039    1.4289    0.0000 N   0  0  0  0  0  0  0  0  0  0  0  0
    3.1895    1.8414    0.0000 C   0  0  0  0  0  0  0  0  0  0  0  0
    2.4750    1.4289    0.0000 C   0  0  0  0  0  0  0  0  0  0  0  0
    1.7605    1.8414    0.0000 O   0  0  0  0  0  0  0  0  0  0  0  0
    4.6184    1.8414    0.0000 C   0  0  0  0  0  0  0  0  0  0  0  0
    5.3329    1.4289    0.0000 C   0  0  0  0  0  0  0  0  0  0  0  0
    6.0474    1.8414    0.0000 O   0  0  0  0  0  0  0  0  0  0  0  0
  1  2  1  0  0  0  0
  2  3  1  0  0  0  0
  3  4  1  0  0  0  0
  4  5  1  0  0  0  0
  5  6  1  0  0  0  0
  3  7  1  0  0  0  0
  7  8  1  0  0  0  0
  8  9  1  0  0  0  0
M  END
> <activity>
4.5

> <InChiKey>
AKNUHUCEWALCOI-UHFFFAOYSA-N

$$$$

  Mrv2220 08292413132D          

 10  9  0  0  0  0            999 V2000
    2.9980    2.5559    0.0000 C   0  0  0  0  0  0  0  0  0  0  0  0
    3.7125    2.1434    0.0000 C   0  0  0  0  0  0  0  0  0  0  0  0
    4.4270    2.5559    0.0000 C   0  0  0  0  0  0  0  0  0  0  0  0
    5.1414    2.1434    0.0000 C   0  0  0  0  0  0  0  0  0  0  0  0
    5.8559    2.5559    0.0000 C   0  0  0  0  0  0  0  0  0  0  0  0
    6.5704    2.1434    0.0000 C   0  0  0  0  0  0  0  0  0  0  0  0
    6.5704    1.3184    0.0000 O   0  0  0  0  0  0  0  0  0  0  0  0
    7.2849    2.5559    0.0000 O   0  0  0  0  0  0  0  0  0  0  0  0
    7.9993    2.1434    0.0000 C   0  0  0  0  0  0  0  0  0  0  0  0
    8.7138    2.5559    0.0000 C   0  0  0  0  0  0  0  0  0  0  0  0
  1  2  1  0  0  0  0
  2  3  1  0  0  0  0
  3  4  1  0  0  0  0
  4  5  1  0  0  0  0
  5  6  1  0  0  0  0
  6  7  2  0  0  0  0
  6  8  1  0  0  0  0
  8  9  1  0  0  0  0
  9 10  1  0  0  0  0
M  END
> <activity>
1.8

> <InChiKey>
SHZIWNPUGXLXDT-UHFFFAOYSA-N

$$$$

  Mrv2220 08292413132D          

 22 21  0  0  0  0            999 V2000
   -2.9092    3.2704    0.0000 C   0  0  0  0  0  0  0  0  0  0  0  0
   -2.1947    2.8579    0.0000 C   0  0  0  0  0  0  0  0  0  0  0  0
   -1.4802    3.2704    0.0000 C   0  0  0  0  0  0  0  0  0  0  0  0
   -0.7658    2.8579    0.0000 C   0  0  0  0  0  0  0  0  0  0  0  0
   -0.0513    3.2704    0.0000 C   0  0  0  0  0  0  0  0  0  0  0  0
    0.6632    2.8579    0.0000 C   0  0  0  0  0  0  0  0  0  0  0  0
    1.3776    3.2704    0.0000 C   0  0  0  0  0  0  0  0  0  0  0  0
    2.0921    2.8579    0.0000 C   0  0  0  0  0  0  0  0  0  0  0  0
    2.8066    3.2704    0.0000 C   0  0  0  0  0  0  0  0  0  0  0  0
    3.5211    2.8579    0.0000 C   0  0  0  0  0  0  0  0  0  0  0  0
    4.2355    3.2704    0.0000 C   0  0  0  0  0  0  0  0  0  0  0  0
    4.9500    2.8579    0.0000 C   0  0  0  0  0  0  0  0  0  0  0  0
    5.6645    3.2704    0.0000 C   0  0  0  0  0  0  0  0  0  0  0  0
    6.3789    2.8579    0.0000 C   0  0  0  0  0  0  0  0  0  0  0  0
    7.0934    3.2704    0.0000 C   0  0  0  0  0  0  0  0  0  0  0  0
    7.8079    2.8579    0.0000 C   0  0  0  0  0  0  0  0  0  0  0  0
    8.5224    3.2704    0.0000 C   0  0  0  0  0  0  0  0  0  0  0  0
    9.2368    2.8579    0.0000 C   0  0  0  0  0  0  0  0  0  0  0  0
    9.2368    2.0329    0.0000 O   0  0  0  0  0  0  0  0  0  0  0  0
    9.9513    3.2704    0.0000 O   0  0  0  0  0  0  0  0  0  0  0  0
   10.6658    2.8579    0.0000 C   0  0  0  0  0  0  0  0  0  0  0  0
   11.3802    3.2704    0.0000 C   0  0  0  0  0  0  0  0  0  0  0  0
  1  2  1  0  0  0  0
  2  3  1  0  0  0  0
  3  4  1  0  0  0  0
  4  5  1  0  0  0  0
  5  6  1  0  0  0  0
  6  7  1  0  0  0  0
  7  8  1  0  0  0  0
  9  8  1  4  0  0  0
  9 10  2  0  0  0  0
 10 11  1  0  0  0  0
 11 12  1  0  0  0  0
 12 13  1  0  0  0  0
 13 14  1  0  0  0  0
 14 15  1  0  0  0  0
 15 16  1  0  0  0  0
 16 17  1  0  0  0  0
 17 18  1  0  0  0  0
 18 19  2  0  0  0  0
 18 20  1  0  0  0  0
 20 21  1  0  0  0  0
 21 22  1  0  0  0  0
M  END
> <activity>
17.7

> <InChiKey>
LVGKNOAMLMIIKO-UHFFFAOYSA-N

$$$$

  Mrv2220 08292413132D          

 10  9  0  0  0  0            999 V2000
    1.4289   -4.7289    0.0000 C   0  0  0  0  0  0  0  0  0  0  0  0
    1.4289   -3.9039    0.0000 C   0  0  0  0  0  0  0  0  0  0  0  0
    0.7145   -3.4914    0.0000 O   0  0  0  0  0  0  0  0  0  0  0  0
    0.7145   -2.6664    0.0000 C   0  0  0  0  0  0  0  0  0  0  0  0
    0.0000   -2.2539    0.0000 O   0  0  0  0  0  0  0  0  0  0  0  0
    0.0000   -1.4289    0.0000 C   0  0  0  0  0  0  0  0  0  0  0  0
   -0.7145   -1.0164    0.0000 C   0  0  0  0  0  0  0  0  0  0  0  0
    1.4289   -2.2539    0.0000 O   0  0  0  0  0  0  0  0  0  0  0  0
    1.4289   -1.4289    0.0000 C   0  0  0  0  0  0  0  0  0  0  0  0
    2.1434   -1.0164    0.0000 C   0  0  0  0  0  0  0  0  0  0  0  0
  1  2  1  0  0  0  0
  2  3  1  0  0  0  0
  3  4  1  0  0  0  0
  4  5  1  0  0  0  0
  5  6  1  0  0  0  0
  6  7  1  0  0  0  0
  4  8  1  0  0  0  0
  8  9  1  0  0  0  0
  9 10  1  0  0  0  0
M  END
> <activity>
12.0

> <InChiKey>
GKASDNZWUGIAMG-UHFFFAOYSA-N

$$$$

  Mrv2220 08292413132D          

  7  6  0  0  0  0            999 V2000
   -0.1914    0.7145    0.0000 C   0  0  0  0  0  0  0  0  0  0  0  0
    0.5230    1.1270    0.0000 C   0  0  0  0  0  0  0  0  0  0  0  0
    1.2375    0.7145    0.0000 O   0  0  0  0  0  0  0  0  0  0  0  0
    1.9520    1.1270    0.0000 C   0  0  0  0  0  0  0  0  0  0  0  0
    1.9520    1.9520    0.0000 O   0  0  0  0  0  0  0  0  0  0  0  0
    2.6664    0.7145    0.0000 C   0  0  0  0  0  0  0  0  0  0  0  0
    3.3809    1.1270    0.0000 C   0  0  0  0  0  0  0  0  0  0  0  0
  1  2  1  0  0  0  0
  2  3  1  0  0  0  0
  3  4  1  0  0  0  0
  4  5  2  0  0  0  0
  4  6  1  0  0  0  0
  6  7  1  0  0  0  0
M  END
> <activity>
10.6

> <InChiKey>
FKRCODPIKNYEAC-UHFFFAOYSA-N

$$$$

  Mrv2220 08292413132D          

 15 14  0  0  0  0            999 V2000
    4.7586    3.5724    0.0000 C   0  0  0  0  0  0  0  0  0  0  0  0
    5.4730    3.9849    0.0000 C   0  0  0  0  0  0  0  0  0  0  0  0
    6.1875    3.5724    0.0000 C   0  0  0  0  0  0  0  0  0  0  0  0
    6.9020    3.9849    0.0000 C   0  0  0  0  0  0  0  0  0  0  0  0
    7.6164    3.5724    0.0000 C   0  0  0  0  0  0  0  0  0  0  0  0
    8.3309    3.9849    0.0000 C   0  0  0  0  0  0  0  0  0  0  0  0
    9.0454    3.5724    0.0000 C   0  0  0  0  0  0  0  0  0  0  0  0
    9.7599    3.9849    0.0000 C   0  0  0  0  0  0  0  0  0  0  0  0
   10.4743    3.5724    0.0000 C   0  0  0  0  0  0  0  0  0  0  0  0
   11.1888    3.9849    0.0000 C   0  0  0  0  0  0  0  0  0  0  0  0
   11.9033    3.5724    0.0000 C   0  0  0  0  0  0  0  0  0  0  0  0
   11.9033    2.7474    0.0000 O   0  0  0  0  0  0  0  0  0  0  0  0
   12.6177    3.9849    0.0000 O   0  0  0  0  0  0  0  0  0  0  0  0
   13.3322    3.5724    0.0000 C   0  0  0  0  0  0  0  0  0  0  0  0
   14.0467    3.9849    0.0000 C   0  0  0  0  0  0  0  0  0  0  0  0
  1  2  2  0  0  0  0
  2  3  1  0  0  0  0
  3  4  1  0  0  0  0
  4  5  1  0  0  0  0
  5  6  1  0  0  0  0
  6  7  1  0  0  0  0
  7  8  1  0  0  0  0
  8  9  1  0  0  0  0
  9 10  1  0  0  0  0
 10 11  1  0  0  0  0
 11 12  2  0  0  0  0
 11 13  1  0  0  0  0
 13 14  1  0  0  0  0
 14 15  1  0  0  0  0
M  END
> <activity>
26.8

> <InChiKey>
FXNFFCMITPHEIT-UHFFFAOYSA-N

$$$$

  Mrv2220 08292413132D          

  9  8  0  0  0  0            999 V2000
    1.0461    1.4289    0.0000 C   0  0  0  0  0  0  0  0  0  0  0  0
    1.7605    1.8414    0.0000 C   0  0  0  0  0  0  0  0  0  0  0  0
    2.4750    1.4289    0.0000 O   0  0  0  0  0  0  0  0  0  0  0  0
    3.1895    1.8414    0.0000 C   0  0  0  0  0  0  0  0  0  0  0  0
    3.9039    1.4289    0.0000 C   0  0  0  0  0  0  0  0  0  0  0  0
    4.6184    1.8414    0.0000 O   0  0  0  0  0  0  0  0  0  0  0  0
    5.3329    1.4289    0.0000 C   0  0  0  0  0  0  0  0  0  0  0  0
    6.0474    1.8414    0.0000 C   0  0  0  0  0  0  0  0  0  0  0  0
    5.3329    0.6039    0.0000 O   0  0  0  0  0  0  0  0  0  0  0  0
  1  2  1  0  0  0  0
  2  3  1  0  0  0  0
  3  4  1  0  0  0  0
  4  5  1  0  0  0  0
  5  6  1  0  0  0  0
  6  7  1  0  0  0  0
  7  8  1  0  0  0  0
  7  9  2  0  0  0  0
M  END
> <activity>
12.3

> <InChiKey>
SVONRAPFKPVNKG-UHFFFAOYSA-N

$$$$

  Mrv2220 08292413132D          

 26 27  0  0  0  0            999 V2000
    0.7145   -2.8875    0.0000 O   0  0  0  0  0  0  0  0  0  0  0  0
    0.7145   -2.0625    0.0000 C   0  0  0  0  0  0  0  0  0  0  0  0
    1.4289   -1.6500    0.0000 O   0  0  0  0  0  0  0  0  0  0  0  0
    2.1434   -2.0625    0.0000 C   0  0  0  0  0  0  0  0  0  0  0  0
    2.8579   -1.6500    0.0000 C   0  0  0  0  0  0  0  0  0  0  0  0
    3.5724   -2.0625    0.0000 O   0  0  0  0  0  0  0  0  0  0  0  0
    4.2868   -1.6500    0.0000 C   0  0  0  0  0  0  0  0  0  0  0  0
    5.0013   -2.0625    0.0000 C   0  0  0  0  0  0  0  0  0  0  0  0
    5.7158   -1.6500    0.0000 O   0  0  0  0  0  0  0  0  0  0  0  0
    6.4302   -2.0625    0.0000 C   0  0  0  0  0  0  0  0  0  0  0  0
    7.1447   -1.6500    0.0000 C   0  0  0  0  0  0  0  0  0  0  0  0
    7.8592   -2.0625    0.0000 O   0  0  0  0  0  0  0  0  0  0  0  0
    8.5737   -1.6500    0.0000 C   0  0  0  0  0  0  0  0  0  0  0  0
    8.5737   -0.8250    0.0000 O   0  0  0  0  0  0  0  0  0  0  0  0
    9.2881   -2.0625    0.0000 C   0  0  0  0  0  0  0  0  0  0  0  0
   10.0026   -1.6500    0.0000 C   0  0  0  0  0  0  0  0  0  0  0  0
   10.7171   -2.0625    0.0000 C   0  0  0  0  0  0  0  0  0  0  0  0
   10.7171   -2.8875    0.0000 C   0  0  0  0  0  0  0  0  0  0  0  0
   10.0026   -3.3000    0.0000 C   0  0  0  0  0  0  0  0  0  0  0  0
    9.2881   -2.8875    0.0000 C   0  0  0  0  0  0  0  0  0  0  0  0
    0.0000   -1.6500    0.0000 C   0  0  0  0  0  0  0  0  0  0  0  0
   -0.7145   -2.0625    0.0000 C   0  0  0  0  0  0  0  0  0  0  0  0
   -1.4289   -1.6500    0.0000 C   0  0  0  0  0  0  0  0  0  0  0  0
   -1.4289   -0.8250    0.0000 C   0  0  0  0  0  0  0  0  0  0  0  0
   -0.7145   -0.4125    0.0000 C   0  0  0  0  0  0  0  0  0  0  0  0
    0.0000   -0.8250    0.0000 C   0  0  0  0  0  0  0  0  0  0  0  0
  1  2  2  0  0  0  0
  2  3  1  0  0  0  0
  3  4  1  0  0  0  0
  4  5  1  0  0  0  0
  5  6  1  0  0  0  0
  6  7  1  0  0  0  0
  7  8  1  0  0  0  0
  8  9  1  0  0  0  0
  9 10  1  0  0  0  0
 10 11  1  0  0  0  0
 11 12  1  0  0  0  0
 12 13  1  0  0  0  0
 13 14  2  0  0  0  0
 13 15  1  0  0  0  0
 15 16  4  0  0  0  0
 16 17  4  0  0  0  0
 17 18  4  0  0  0  0
 18 19  4  0  0  0  0
 19 20  4  0  0  0  0
 15 20  4  0  0  0  0
  2 21  1  0  0  0  0
 21 22  4  0  0  0  0
 22 23  4  0  0  0  0
 23 24  4  0  0  0  0
 24 25  4  0  0  0  0
 25 26  4  0  0  0  0
 21 26  4  0  0  0  0
M  END
> <activity>
26.0

> <InChiKey>
AHSGHEXYEABOKT-UHFFFAOYSA-N

$$$$

  Mrv2220 08292413132D          

 12 12  0  0  0  0            999 V2000
   -0.7145    3.7125    0.0000 C   0  0  0  0  0  0  0  0  0  0  0  0
    0.0000    3.3000    0.0000 C   0  0  0  0  0  0  0  0  0  0  0  0
    0.0000    2.4750    0.0000 O   0  0  0  0  0  0  0  0  0  0  0  0
    0.7145    2.0625    0.0000 C   0  0  0  0  0  0  0  0  0  0  0  0
    1.4289    2.4750    0.0000 O   0  0  0  0  0  0  0  0  0  0  0  0
    0.7145    1.2375    0.0000 C   0  0  0  0  0  0  0  0  0  0  0  0
    1.4289    0.8250    0.0000 C   0  0  0  0  0  0  0  0  0  0  0  0
    1.4289   -0.0000    0.0000 C   0  0  0  0  0  0  0  0  0  0  0  0
    0.7145   -0.4125    0.0000 C   0  0  0  0  0  0  0  0  0  0  0  0
    0.7145   -1.2375    0.0000 O   0  0  0  0  0  0  0  0  0  0  0  0
    0.0000    0.0000    0.0000 C   0  0  0  0  0  0  0  0  0  0  0  0
    0.0000    0.8250    0.0000 C   0  0  0  0  0  0  0  0  0  0  0  0
  1  2  1  0  0  0  0
  2  3  1  0  0  0  0
  3  4  1  0  0  0  0
  4  5  2  0  0  0  0
  4  6  1  0  0  0  0
  6  7  4  0  0  0  0
  7  8  4  0  0  0  0
  8  9  4  0  0  0  0
  9 10  1  0  0  0  0
  9 11  4  0  0  0  0
 11 12  4  0  0  0  0
  6 12  4  0  0  0  0
M  END
> <activity>
81.3

> <InChiKey>
NUVBSKCKDOMJSU-UHFFFAOYSA-N

$$$$

  Mrv2220 08292413132D          

 28 30  0  0  0  0            999 V2000
    6.4302    0.4125    0.0000 C   0  0  0  0  0  0  0  0  0  0  0  0
    6.4302   -0.4125    0.0000 C   0  0  0  0  0  0  0  0  0  0  0  0
    7.1447   -0.8250    0.0000 O   0  0  0  0  0  0  0  0  0  0  0  0
    7.1447   -1.6500    0.0000 C   0  0  0  0  0  0  0  0  0  0  0  0
    7.8592   -2.0625    0.0000 C   0  0  0  0  0  0  0  0  0  0  0  0
    7.8592   -2.8875    0.0000 C   0  0  0  0  0  0  0  0  0  0  0  0
    7.1447   -3.3000    0.0000 C   0  0  0  0  0  0  0  0  0  0  0  0
    7.1447   -4.1250    0.0000 C   0  0  0  0  0  0  0  0  0  0  0  0
    6.3197   -4.1250    0.0000 C   0  0  0  0  0  0  0  0  0  0  0  0
    7.9697   -4.1250    0.0000 C   0  0  0  0  0  0  0  0  0  0  0  0
    7.1447   -4.9500    0.0000 C   0  0  0  0  0  0  0  0  0  0  0  0
    7.8592   -5.3625    0.0000 O   0  0  0  0  0  0  0  0  0  0  0  0
    7.8592   -6.1875    0.0000 C   0  0  0  0  0  0  0  0  0  0  0  0
    8.5737   -6.6000    0.0000 C   0  0  0  0  0  0  0  0  0  0  0  0
    9.2881   -6.1875    0.0000 C   0  0  0  0  0  0  0  0  0  0  0  0
   10.0026   -6.6000    0.0000 C   0  0  0  0  0  0  0  0  0  0  0  0
   10.0026   -7.4250    0.0000 C   0  0  0  0  0  0  0  0  0  0  0  0
    9.2881   -7.8375    0.0000 C   0  0  0  0  0  0  0  0  0  0  0  0
    9.2881   -8.6625    0.0000 O   0  0  0  0  0  0  0  0  0  0  0  0
    8.5737   -9.0750    0.0000 C   0  0  0  0  0  0  0  0  0  0  0  0
    8.5737   -9.9000    0.0000 C   0  0  0  0  0  0  0  0  0  0  0  0
    7.8592  -10.3125    0.0000 C   0  0  0  0  0  0  0  0  0  0  0  0
    7.1447   -9.9000    0.0000 C   0  0  0  0  0  0  0  0  0  0  0  0
    7.1447   -9.0750    0.0000 C   0  0  0  0  0  0  0  0  0  0  0  0
    7.8592   -8.6625    0.0000 C   0  0  0  0  0  0  0  0  0  0  0  0
    8.5737   -7.4250    0.0000 C   0  0  0  0  0  0  0  0  0  0  0  0
    6.4302   -2.8875    0.0000 C   0  0  0  0  0  0  0  0  0  0  0  0
    6.4302   -2.0625    0.0000 C   0  0  0  0  0  0  0  0  0  0  0  0
  1  2  1  0  0  0  0
  2  3  1  0  0  0  0
  3  4  1  0  0  0  0
  4  5  4  0  0  0  0
  5  6  4  0  0  0  0
  6  7  4  0  0  0  0
  7  8  1  0  0  0  0
  8  9  1  0  0  0  0
  8 10  1  0  0  0  0
  8 11  1  0  0  0  0
 11 12  1  0  0  0  0
 12 13  1  0  0  0  0
 13 14  1  0  0  0  0
 14 15  4  0  0  0  0
 15 16  4  0  0  0  0
 16 17  4  0  0  0  0
 17 18  4  0  0  0  0
 18 19  1  0  0  0  0
 19 20  1  0  0  0  0
 20 21  4  0  0  0  0
 21 22  4  0  0  0  0
 22 23  4  0  0  0  0
 23 24  4  0  0  0  0
 24 25  4  0  0  0  0
 20 25  4  0  0  0  0
 18 26  4  0  0  0  0
 14 26  4  0  0  0  0
  7 27  4  0  0  0  0
 27 28  4  0  0  0  0
  4 28  4  0  0  0  0
M  END
> <activity>
51.7

> <InChiKey>
YREQHYQNNWYQCJ-UHFFFAOYSA-N

$$$$

  Mrv2220 08292413132D          

 26 28  0  0  0  0            999 V2000
   -1.4289   -1.6500    0.0000 C   0  0  0  0  0  0  0  0  0  0  0  0
   -0.7145   -1.2375    0.0000 C   0  0  0  0  0  0  0  0  0  0  0  0
   -0.7145   -0.4125    0.0000 O   0  0  0  0  0  0  0  0  0  0  0  0
    0.0000   -0.0000    0.0000 C   0  0  0  0  0  0  0  0  0  0  0  0
    0.0000    0.8250    0.0000 C   0  0  0  0  0  0  0  0  0  0  0  0
    0.7145    1.2375    0.0000 C   0  0  0  0  0  0  0  0  0  0  0  0
    0.7145    2.0625    0.0000 C   0  0  0  0  0  0  0  0  0  0  0  0
    0.7145    2.8875    0.0000 C   0  0  0  0  0  0  0  0  0  0  0  0
   -0.1105    2.0625    0.0000 C   0  0  0  0  0  0  0  0  0  0  0  0
    1.5395    2.0625    0.0000 C   0  0  0  0  0  0  0  0  0  0  0  0
    1.4289    0.8250    0.0000 C   0  0  0  0  0  0  0  0  0  0  0  0
    1.4289   -0.0000    0.0000 C   0  0  0  0  0  0  0  0  0  0  0  0
    0.7145   -0.4125    0.0000 C   0  0  0  0  0  0  0  0  0  0  0  0
    0.7145   -1.2375    0.0000 C   0  0  0  0  0  0  0  0  0  0  0  0
    1.3819   -1.7224    0.0000 C   0  0  0  0  0  0  0  0  0  0  0  0
    1.1270   -2.5070    0.0000 O   0  0  0  0  0  0  0  0  0  0  0  0
    0.3020   -2.5070    0.0000 C   0  0  0  0  0  0  0  0  0  0  0  0
   -0.1830   -3.1745    0.0000 C   0  0  0  0  0  0  0  0  0  0  0  0
    0.1526   -3.9282    0.0000 C   0  0  0  0  0  0  0  0  0  0  0  0
    0.9731   -4.0144    0.0000 F   0  0  0  0  0  0  0  0  0  0  0  0
   -0.3323   -4.5956    0.0000 C   0  0  0  0  0  0  0  0  0  0  0  0
   -1.1528   -4.5094    0.0000 C   0  0  0  0  0  0  0  0  0  0  0  0
   -1.4884   -3.7557    0.0000 C   0  0  0  0  0  0  0  0  0  0  0  0
   -1.0034   -3.0882    0.0000 C   0  0  0  0  0  0  0  0  0  0  0  0
   -1.3390   -2.3346    0.0000 F   0  0  0  0  0  0  0  0  0  0  0  0
    0.0470   -1.7224    0.0000 N   0  0  0  0  0  0  0  0  0  0  0  0
  1  2  1  0  0  0  0
  2  3  1  0  0  0  0
  3  4  1  0  0  0  0
  4  5  4  0  0  0  0
  5  6  4  0  0  0  0
  6  7  1  0  0  0  0
  7  8  1  0  0  0  0
  7  9  1  0  0  0  0
  7 10  1  0  0  0  0
  6 11  4  0  0  0  0
 11 12  4  0  0  0  0
 12 13  4  0  0  0  0
  4 13  4  0  0  0  0
 13 14  1  0  0  0  0
 14 15  1  0  0  0  0
 15 16  1  0  0  0  0
 16 17  1  0  0  0  0
 17 18  1  0  0  0  0
 18 19  4  0  0  0  0
 19 20  1  0  0  0  0
 19 21  4  0  0  0  0
 21 22  4  0  0  0  0
 22 23  4  0  0  0  0
 23 24  4  0  0  0  0
 18 24  4  0  0  0  0
 24 25  1  0  0  0  0
 17 26  2  0  0  0  0
 14 26  1  0  0  0  0
M  END
> <activity>
40.1

> <InChiKey>
IXSZQYVWNJNRAL-UHFFFAOYSA-N

$$$$

  Mrv2220 08292413132D          

 12 12  0  0  0  0            999 V2000
    0.0000    3.3000    0.0000 C   0  0  0  0  0  0  0  0  0  0  0  0
    0.0000    2.4750    0.0000 C   0  0  0  0  0  0  0  0  0  0  0  0
    0.7145    2.0625    0.0000 C   0  0  0  0  0  0  0  0  0  0  0  0
    0.7145    1.2375    0.0000 C   0  0  0  0  0  0  0  0  0  0  0  0
    1.4289    0.8250    0.0000 C   0  0  0  0  0  0  0  0  0  0  0  0
    1.4289   -0.0000    0.0000 C   0  0  0  0  0  0  0  0  0  0  0  0
    0.7145   -0.4125    0.0000 C   0  0  0  0  0  0  0  0  0  0  0  0
    0.7145   -1.2375    0.0000 O   0  0  0  0  0  0  0  0  0  0  0  0
    0.0000    0.0000    0.0000 C   0  0  0  0  0  0  0  0  0  0  0  0
   -0.7145   -0.4125    0.0000 O   0  0  0  0  0  0  0  0  0  0  0  0
   -1.4289    0.0000    0.0000 C   0  0  0  0  0  0  0  0  0  0  0  0
    0.0000    0.8250    0.0000 C   0  0  0  0  0  0  0  0  0  0  0  0
  1  2  2  0  0  0  0
  2  3  1  0  0  0  0
  3  4  1  0  0  0  0
  4  5  4  0  0  0  0
  5  6  4  0  0  0  0
  6  7  4  0  0  0  0
  7  8  1  0  0  0  0
  7  9  4  0  0  0  0
  9 10  1  0  0  0  0
 10 11  1  0  0  0  0
  9 12  4  0  0  0  0
  4 12  4  0  0  0  0
M  END
> <activity>
91.2

> <InChiKey>
RRAFCDWBNXTKKO-UHFFFAOYSA-N

$$$$

  Mrv2220 08292413132D          

 36 40  0  0  0  0            999 V2000
    4.7812    3.5854    0.0000 C   0  0  0  0  0  0  0  0  0  0  0  0
    5.4957    3.1729    0.0000 C   0  0  0  0  0  0  0  0  0  0  0  0
    5.4957    2.3479    0.0000 C   0  0  0  0  0  0  0  0  0  0  0  0
    6.2102    1.9354    0.0000 C   0  0  0  0  0  0  0  0  0  0  0  0
    6.2102    1.1104    0.0000 C   0  0  0  0  0  0  0  0  0  0  0  0
    6.9246    0.6979    0.0000 C   0  0  0  0  0  0  0  0  0  0  0  0
    7.6391    1.1104    0.0000 C   0  0  0  0  0  0  0  0  0  0  0  0
    7.6391    1.9354    0.0000 C   0  0  0  0  0  0  0  0  0  0  0  0
    8.3536    2.3479    0.0000 O   0  0  0  0  0  0  0  0  0  0  0  0
    6.9246    2.3479    0.0000 O   0  0  0  0  0  0  0  0  0  0  0  0
    8.3536    0.6979    0.0000 N   0  0  0  0  0  0  0  0  0  0  0  0
    9.0681    1.1104    0.0000 C   0  0  0  0  0  0  0  0  0  0  0  0
    9.0681    1.9354    0.0000 C   0  0  0  0  0  0  0  0  0  0  0  0
    9.7825    2.3479    0.0000 C   0  0  0  0  0  0  0  0  0  0  0  0
   10.4970    1.9354    0.0000 C   0  0  0  0  0  0  0  0  0  0  0  0
   10.4970    1.1104    0.0000 C   0  0  0  0  0  0  0  0  0  0  0  0
    9.7825    0.6979    0.0000 C   0  0  0  0  0  0  0  0  0  0  0  0
    9.7825   -0.1271    0.0000 C   0  0  0  0  0  0  0  0  0  0  0  0
    9.7825   -0.9521    0.0000 F   0  0  0  0  0  0  0  0  0  0  0  0
    8.9575   -0.1271    0.0000 F   0  0  0  0  0  0  0  0  0  0  0  0
   10.6075   -0.1271    0.0000 F   0  0  0  0  0  0  0  0  0  0  0  0
    8.3536   -0.1271    0.0000 S   0  0  0  0  0  0  0  0  0  0  0  0
    9.0951   -0.4887    0.0000 O   0  0  0  0  0  0  0  0  0  0  0  0
    8.6357   -0.9023    0.0000 O   0  0  0  0  0  0  0  0  0  0  0  0
    7.6391   -0.5396    0.0000 C   0  0  0  0  0  0  0  0  0  0  0  0
    7.6391   -1.3646    0.0000 C   0  0  0  0  0  0  0  0  0  0  0  0
    6.9246   -1.7771    0.0000 C   0  0  0  0  0  0  0  0  0  0  0  0
    6.2102   -1.3646    0.0000 C   0  0  0  0  0  0  0  0  0  0  0  0
    6.2102   -0.5396    0.0000 C   0  0  0  0  0  0  0  0  0  0  0  0
    6.9246   -0.1271    0.0000 C   0  0  0  0  0  0  0  0  0  0  0  0
    5.4957    0.6979    0.0000 C   0  0  0  0  0  0  0  0  0  0  0  0
    4.7812    1.1104    0.0000 C   0  0  0  0  0  0  0  0  0  0  0  0
    4.7812    1.9354    0.0000 C   0  0  0  0  0  0  0  0  0  0  0  0
    3.9966    2.1904    0.0000 O   0  0  0  0  0  0  0  0  0  0  0  0
    3.5117    1.5229    0.0000 C   0  0  0  0  0  0  0  0  0  0  0  0
    3.9966    0.8555    0.0000 O   0  0  0  0  0  0  0  0  0  0  0  0
  1  2  1  0  0  0  0
  2  3  1  0  0  0  0
  3  4  4  0  0  0  0
  4  5  4  0  0  0  0
  5  6  1  0  0  0  0
  6  7  2  0  0  0  0
  7  8  1  0  0  0  0
  8  9  2  0  0  0  0
  8 10  1  0  0  0  0
  7 11  1  0  0  0  0
 11 12  1  0  0  0  0
 12 13  4  0  0  0  0
 13 14  4  0  0  0  0
 14 15  4  0  0  0  0
 15 16  4  0  0  0  0
 16 17  4  0  0  0  0
 12 17  4  0  0  0  0
 17 18  1  0  0  0  0
 18 19  1  0  0  0  0
 18 20  1  0  0  0  0
 18 21  1  0  0  0  0
 11 22  1  0  0  0  0
 22 23  2  0  0  0  0
 22 24  2  0  0  0  0
 22 25  1  0  0  0  0
 25 26  4  0  0  0  0
 26 27  4  0  0  0  0
 27 28  4  0  0  0  0
 28 29  4  0  0  0  0
 29 30  4  0  0  0  0
 25 30  4  0  0  0  0
  6 30  1  0  0  0  0
  5 31  4  0  0  0  0
 31 32  4  0  0  0  0
 32 33  4  0  0  0  0
  3 33  4  0  0  0  0
 33 34  1  0  0  0  0
 34 35  1  0  0  0  0
 35 36  1  0  0  0  0
 32 36  1  0  0  0  0
M  END
> <activity>
81.3

> <InChiKey>
YMGQBWRXNCAABF-UHFFFAOYSA-N

$$$$

  Mrv2220 08292413132D          

 16 15  0  0  0  0            999 V2000
    6.1875    3.5724    0.0000 C   0  0  0  0  0  0  0  0  0  0  0  0
    5.7750    2.8579    0.0000 C   0  0  0  0  0  0  0  0  0  0  0  0
    6.1875    2.1434    0.0000 C   0  0  0  0  0  0  0  0  0  0  0  0
    4.9500    2.8579    0.0000 C   0  0  0  0  0  0  0  0  0  0  0  0
    4.5375    2.1434    0.0000 C   0  0  0  0  0  0  0  0  0  0  0  0
    3.7125    2.1434    0.0000 C   0  0  0  0  0  0  0  0  0  0  0  0
    3.3000    1.4289    0.0000 C   0  0  0  0  0  0  0  0  0  0  0  0
    3.7125    0.7145    0.0000 C   0  0  0  0  0  0  0  0  0  0  0  0
    2.4750    1.4289    0.0000 C   0  0  0  0  0  0  0  0  0  0  0  0
    2.0625    0.7145    0.0000 C   0  0  0  0  0  0  0  0  0  0  0  0
    1.2375    0.7145    0.0000 C   0  0  0  0  0  0  0  0  0  0  0  0
    0.8250    0.0000    0.0000 C   0  0  0  0  0  0  0  0  0  0  0  0
    1.2375   -0.7145    0.0000 C   0  0  0  0  0  0  0  0  0  0  0  0
    0.0000    0.0000    0.0000 C   0  0  0  0  0  0  0  0  0  0  0  0
   -0.4125   -0.7145    0.0000 C   0  0  0  0  0  0  0  0  0  0  0  0
    0.0000   -1.4289    0.0000 O   0  0  0  0  0  0  0  0  0  0  0  0
  1  2  1  0  0  0  0
  2  3  1  0  0  0  0
  2  4  2  0  0  0  0
  4  5  1  0  0  0  0
  5  6  1  0  0  0  0
  6  7  1  0  0  0  0
  7  8  1  0  0  0  0
  7  9  2  0  0  0  0
  9 10  1  4  0  0  0
 10 11  1  0  0  0  0
 11 12  1  0  0  0  0
 12 13  1  0  0  0  0
 12 14  2  0  0  0  0
 14 15  1  4  0  0  0
 15 16  1  0  0  0  0
M  END
> <activity>
90.0

> <InChiKey>
CRDAMVZIKSXKFV-UHFFFAOYSA-N

$$$$

  Mrv2220 08292413132D          

 52 56  0  0  0  0            999 V2000
    3.5724   -1.2375    0.0000 C   0  0  0  0  0  0  0  0  0  0  0  0
    4.2868   -1.6500    0.0000 C   0  0  0  0  0  0  0  0  0  0  0  0
    5.0013   -1.2375    0.0000 N   0  0  0  0  0  0  0  0  0  0  0  0
    5.7158   -1.6500    0.0000 C   0  0  0  0  0  0  0  0  0  0  0  0
    5.7158   -2.4750    0.0000 C   0  0  0  0  0  0  0  0  0  0  0  0
    6.4302   -2.8875    0.0000 C   0  0  0  0  0  0  0  0  0  0  0  0
    6.4302   -3.7125    0.0000 C   0  0  0  0  0  0  0  0  0  0  0  0
    5.7158   -4.1250    0.0000 C   0  0  0  0  0  0  0  0  0  0  0  0
    5.0013   -3.7125    0.0000 C   0  0  0  0  0  0  0  0  0  0  0  0
    4.2868   -4.1250    0.0000 S   0  0  0  0  0  0  0  0  0  0  0  0
    3.5724   -4.5375    0.0000 O   0  0  0  0  0  0  0  0  0  0  0  0
    4.6993   -4.8395    0.0000 O   0  0  0  0  0  0  0  0  0  0  0  0
    3.8743   -3.4105    0.0000 O   0  0  0  0  0  0  0  0  0  0  0  0
    5.0013   -2.8875    0.0000 C   0  0  0  0  0  0  0  0  0  0  0  0
    5.0013   -0.4125    0.0000 C   0  0  0  0  0  0  0  0  0  0  0  0
    4.2868    0.0000    0.0000 C   0  0  0  0  0  0  0  0  0  0  0  0
    4.2868    0.8250    0.0000 C   0  0  0  0  0  0  0  0  0  0  0  0
    5.0013    1.2375    0.0000 C   0  0  0  0  0  0  0  0  0  0  0  0
    5.0013    2.0625    0.0000 C   0  0  0  0  0  0  0  0  0  0  0  0
    4.2868    2.4750    0.0000 C   0  0  0  0  0  0  0  0  0  0  0  0
    3.5724    2.0625    0.0000 C   0  0  0  0  0  0  0  0  0  0  0  0
    2.8579    2.4750    0.0000 C   0  0  0  0  0  0  0  0  0  0  0  0
    2.8579    3.3000    0.0000 C   0  0  0  0  0  0  0  0  0  0  0  0
    2.1434    3.7125    0.0000 N   0  3  0  0  0  0  0  0  0  0  0  0
    1.4289    3.3000    0.0000 C   0  0  0  0  0  0  0  0  0  0  0  0
    0.7145    3.7125    0.0000 C   0  0  0  0  0  0  0  0  0  0  0  0
    2.1434    4.5375    0.0000 C   0  0  0  0  0  0  0  0  0  0  0  0
    1.4289    4.9500    0.0000 C   0  0  0  0  0  0  0  0  0  0  0  0
    0.7145    4.5375    0.0000 C   0  0  0  0  0  0  0  0  0  0  0  0
   -0.0000    4.9500    0.0000 C   0  0  0  0  0  0  0  0  0  0  0  0
   -0.0000    5.7750    0.0000 C   0  0  0  0  0  0  0  0  0  0  0  0
    0.7145    6.1875    0.0000 C   0  0  0  0  0  0  0  0  0  0  0  0
    0.7145    7.0125    0.0000 S   0  0  0  0  0  0  0  0  0  0  0  0
    0.7145    7.8375    0.0000 O   0  0  0  0  0  0  0  0  0  0  0  0
    1.5395    7.0125    0.0000 O   0  0  0  0  0  0  0  0  0  0  0  0
   -0.1105    7.0125    0.0000 O   0  0  0  0  0  0  0  0  0  0  0  0
    1.4289    5.7750    0.0000 C   0  0  0  0  0  0  0  0  0  0  0  0
    3.5724    3.7125    0.0000 C   0  0  0  0  0  0  0  0  0  0  0  0
    4.2868    3.3000    0.0000 C   0  0  0  0  0  0  0  0  0  0  0  0
    5.7158    2.4750    0.0000 C   0  0  0  0  0  0  0  0  0  0  0  0
    5.7158    3.3000    0.0000 C   0  0  0  0  0  0  0  0  0  0  0  0
    6.4302    3.7125    0.0000 C   0  0  0  0  0  0  0  0  0  0  0  0
    7.1447    3.3000    0.0000 C   0  0  0  0  0  0  0  0  0  0  0  0
    7.8592    3.7125    0.0000 O   0  0  0  0  0  0  0  0  0  0  0  0
    7.1447    2.4750    0.0000 C   0  0  0  0  0  0  0  0  0  0  0  0
    6.4302    2.0625    0.0000 C   0  0  0  0  0  0  0  0  0  0  0  0
    6.4302    1.2375    0.0000 S   0  0  0  0  0  0  0  0  0  0  0  0
    6.4302    0.4125    0.0000 O   0  0  0  0  0  0  0  0  0  0  0  0
    5.6052    1.2375    0.0000 O   0  0  0  0  0  0  0  0  0  0  0  0
    7.2552    1.2375    0.0000 O   0  5  0  0  0  0  0  0  0  0  0  0
    5.7158    0.8250    0.0000 C   0  0  0  0  0  0  0  0  0  0  0  0
    5.7158    0.0000    0.0000 C   0  0  0  0  0  0  0  0  0  0  0  0
  1  2  1  0  0  0  0
  2  3  1  0  0  0  0
  3  4  1  0  0  0  0
  4  5  1  0  0  0  0
  5  6  4  0  0  0  0
  6  7  4  0  0  0  0
  7  8  4  0  0  0  0
  8  9  4  0  0  0  0
  9 10  1  0  0  0  0
 10 11  2  0  0  0  0
 10 12  2  0  0  0  0
 10 13  1  0  0  0  0
  9 14  4  0  0  0  0
  5 14  4  0  0  0  0
  3 15  1  0  0  0  0
 15 16  4  0  0  0  0
 16 17  4  0  0  0  0
 17 18  4  0  0  0  0
 18 19  1  0  0  0  0
 19 20  2  0  0  0  0
 20 21  1  0  0  0  0
 21 22  2  0  0  0  0
 22 23  1  0  0  0  0
 23 24  2  0  0  0  0
 24 25  1  0  0  0  0
 25 26  1  0  0  0  0
 24 27  1  0  0  0  0
 27 28  1  0  0  0  0
 28 29  4  0  0  0  0
 29 30  4  0  0  0  0
 30 31  4  0  0  0  0
 31 32  4  0  0  0  0
 32 33  1  0  0  0  0
 33 34  2  0  0  0  0
 33 35  2  0  0  0  0
 33 36  1  0  0  0  0
 32 37  4  0  0  0  0
 28 37  4  0  0  0  0
 23 38  1  0  0  0  0
 38 39  2  0  0  0  0
 20 39  1  0  0  0  0
 19 40  1  0  0  0  0
 40 41  4  0  0  0  0
 41 42  4  0  0  0  0
 42 43  4  0  0  0  0
 43 44  1  0  0  0  0
 43 45  4  0  0  0  0
 45 46  4  0  0  0  0
 40 46  4  0  0  0  0
 46 47  1  0  0  0  0
 47 48  2  0  0  0  0
 47 49  2  0  0  0  0
 47 50  1  0  0  0  0
 18 51  4  0  0  0  0
 51 52  4  0  0  0  0
 15 52  4  0  0  0  0
M  CHG  2  24   1  50  -1
M  END
> <activity>
56.9

> <InChiKey>
VVJKKKDJADMKNM-UHFFFAOYSA-N

$$$$

  Mrv2220 08292413132D          

 27 29  0  0  0  0            999 V2000
    0.7145   -7.0125    0.0000 O   0  0  0  0  0  0  0  0  0  0  0  0
    0.7145   -6.1875    0.0000 S   0  0  0  0  0  0  0  0  0  0  0  0
    1.5395   -6.1875    0.0000 O   0  0  0  0  0  0  0  0  0  0  0  0
   -0.1105   -6.1875    0.0000 O   0  0  0  0  0  0  0  0  0  0  0  0
    0.7145   -5.3625    0.0000 C   0  0  0  0  0  0  0  0  0  0  0  0
    0.0000   -4.9500    0.0000 C   0  0  0  0  0  0  0  0  0  0  0  0
    0.0000   -4.1250    0.0000 C   0  0  0  0  0  0  0  0  0  0  0  0
    0.7145   -3.7125    0.0000 C   0  0  0  0  0  0  0  0  0  0  0  0
    0.7145   -2.8875    0.0000 N   0  0  0  0  0  0  0  0  0  0  0  0
    1.4289   -2.4750    0.0000 N   0  0  0  0  0  0  0  0  0  0  0  0
    1.4289   -1.6500    0.0000 C   0  0  0  0  0  0  0  0  0  0  0  0
    0.7145   -1.2375    0.0000 C   0  0  0  0  0  0  0  0  0  0  0  0
    0.0000   -1.6500    0.0000 O   0  0  0  0  0  0  0  0  0  0  0  0
    0.7145   -0.4125    0.0000 C   0  0  0  0  0  0  0  0  0  0  0  0
    1.4289    0.0000    0.0000 C   0  0  0  0  0  0  0  0  0  0  0  0
    2.1434   -0.4125    0.0000 C   0  0  0  0  0  0  0  0  0  0  0  0
    2.8579    0.0000    0.0000 C   0  0  0  0  0  0  0  0  0  0  0  0
    3.5724   -0.4125    0.0000 C   0  0  0  0  0  0  0  0  0  0  0  0
    4.2868   -0.0000    0.0000 S   0  0  0  0  0  0  0  0  0  0  0  0
    5.0013    0.4125    0.0000 O   0  0  0  0  0  0  0  0  0  0  0  0
    4.6993   -0.7145    0.0000 O   0  0  0  0  0  0  0  0  0  0  0  0
    3.8743    0.7145    0.0000 O   0  0  0  0  0  0  0  0  0  0  0  0
    3.5724   -1.2375    0.0000 C   0  0  0  0  0  0  0  0  0  0  0  0
    2.8579   -1.6500    0.0000 C   0  0  0  0  0  0  0  0  0  0  0  0
    2.1434   -1.2375    0.0000 C   0  0  0  0  0  0  0  0  0  0  0  0
    1.4289   -4.1250    0.0000 C   0  0  0  0  0  0  0  0  0  0  0  0
    1.4289   -4.9500    0.0000 C   0  0  0  0  0  0  0  0  0  0  0  0
  1  2  2  0  0  0  0
  2  3  2  0  0  0  0
  2  4  1  0  0  0  0
  2  5  1  0  0  0  0
  5  6  4  0  0  0  0
  6  7  4  0  0  0  0
  7  8  4  0  0  0  0
  9  8  1  4  0  0  0
  9 10  2  0  0  0  0
 10 11  1  0  0  0  0
 11 12  4  0  0  0  0
 12 13  1  0  0  0  0
 12 14  4  0  0  0  0
 14 15  4  0  0  0  0
 15 16  4  0  0  0  0
 16 17  4  0  0  0  0
 17 18  4  0  0  0  0
 18 19  1  0  0  0  0
 19 20  2  0  0  0  0
 19 21  2  0  0  0  0
 19 22  1  0  0  0  0
 18 23  4  0  0  0  0
 23 24  4  0  0  0  0
 24 25  4  0  0  0  0
 11 25  4  0  0  0  0
 16 25  4  0  0  0  0
  8 26  4  0  0  0  0
 26 27  4  0  0  0  0
  5 27  4  0  0  0  0
M  END
> <activity>
97.9

> <InChiKey>
KEYWXKLGZZGHMT-UHFFFAOYSA-N

$$$$

  Mrv2220 08292413132D          

 22 24  0  0  0  0            999 V2000
    0.3188   -3.1499    0.0000 C   0  0  0  0  0  0  0  0  0  0  0  0
    1.1393   -3.2361    0.0000 S   0  0  0  0  0  0  0  0  0  0  0  0
    1.6242   -2.5687    0.0000 C   0  0  0  0  0  0  0  0  0  0  0  0
    1.3693   -1.7840    0.0000 N   0  0  0  0  0  0  0  0  0  0  0  0
    2.0367   -1.2991    0.0000 C   0  0  0  0  0  0  0  0  0  0  0  0
    1.4847   -0.6860    0.0000 C   0  0  0  0  0  0  0  0  0  0  0  0
    2.5887   -0.6860    0.0000 C   0  0  0  0  0  0  0  0  0  0  0  0
    2.3338    0.0986    0.0000 C   0  0  0  0  0  0  0  0  0  0  0  0
    2.8858    0.7117    0.0000 C   0  0  0  0  0  0  0  0  0  0  0  0
    3.6928    0.5402    0.0000 C   0  0  0  0  0  0  0  0  0  0  0  0
    3.9477   -0.2444    0.0000 C   0  0  0  0  0  0  0  0  0  0  0  0
    3.3957   -0.8575    0.0000 C   0  0  0  0  0  0  0  0  0  0  0  0
    2.7041   -1.7840    0.0000 C   0  0  0  0  0  0  0  0  0  0  0  0
    3.4888   -1.5291    0.0000 O   0  0  0  0  0  0  0  0  0  0  0  0
    2.4492   -2.5687    0.0000 N   0  0  0  0  0  0  0  0  0  0  0  0
    2.9341   -3.2361    0.0000 N   0  0  0  0  0  0  0  0  0  0  0  0
    2.5986   -3.9898    0.0000 C   0  0  0  0  0  0  0  0  0  0  0  0
    3.0835   -4.6572    0.0000 C   0  0  0  0  0  0  0  0  0  0  0  0
    2.7479   -5.4109    0.0000 C   0  0  0  0  0  0  0  0  0  0  0  0
    1.9275   -5.4971    0.0000 C   0  0  0  0  0  0  0  0  0  0  0  0
    1.4425   -4.8297    0.0000 C   0  0  0  0  0  0  0  0  0  0  0  0
    1.7781   -4.0760    0.0000 C   0  0  0  0  0  0  0  0  0  0  0  0
  1  2  1  0  0  0  0
  2  3  1  0  0  0  0
  3  4  2  0  0  0  0
  4  5  1  0  0  0  0
  5  6  1  0  0  0  0
  5  7  1  0  0  0  0
  7  8  4  0  0  0  0
  8  9  4  0  0  0  0
  9 10  4  0  0  0  0
 10 11  4  0  0  0  0
 11 12  4  0  0  0  0
  7 12  4  0  0  0  0
  5 13  1  0  0  0  0
 13 14  2  0  0  0  0
 13 15  1  0  0  0  0
  3 15  1  0  0  0  0
 15 16  1  0  0  0  0
 16 17  1  0  0  0  0
 17 18  4  0  0  0  0
 18 19  4  0  0  0  0
 19 20  4  0  0  0  0
 20 21  4  0  0  0  0
 21 22  4  0  0  0  0
 17 22  4  0  0  0  0
M  END
> <activity>
35.3

> <InChiKey>
LMVPQMGRYSRMIW-UHFFFAOYSA-N

$$$$

  Mrv2220 08292413132D          

 11 12  0  0  0  0            999 V2000
    1.0813    1.8507    0.0000 C   0  0  0  0  0  0  0  0  0  0  0  0
    1.0813    1.0257    0.0000 C   0  0  0  0  0  0  0  0  0  0  0  0
    0.3668    0.6132    0.0000 C   0  0  0  0  0  0  0  0  0  0  0  0
    0.3668   -0.2118    0.0000 C   0  0  0  0  0  0  0  0  0  0  0  0
    1.0813   -0.6243    0.0000 C   0  0  0  0  0  0  0  0  0  0  0  0
    1.2875    0.2007    0.0000 C   0  0  0  0  0  0  0  0  0  0  0  0
    1.7957   -0.2118    0.0000 C   0  0  0  0  0  0  0  0  0  0  0  0
    2.0779   -0.9870    0.0000 C   0  0  0  0  0  0  0  0  0  0  0  0
    2.6082   -0.0685    0.0000 C   0  0  0  0  0  0  0  0  0  0  0  0
    1.7957    0.6132    0.0000 C   0  0  0  0  0  0  0  0  0  0  0  0
    2.5102    1.0257    0.0000 O   0  0  0  0  0  0  0  0  0  0  0  0
  1  2  1  0  0  0  0
  2  3  1  0  0  0  0
  3  4  1  0  0  0  0
  4  5  1  0  0  0  0
  5  6  1  0  0  0  0
  2  6  1  0  0  0  0
  5  7  1  0  0  0  0
  7  8  1  0  0  0  0
  7  9  1  0  0  0  0
  7 10  1  0  0  0  0
  2 10  1  0  0  0  0
 10 11  1  0  0  0  0
M  END
> <activity>
3.6

> <InChiKey>
IAIHUHQCLTYTSF-UHFFFAOYSA-N

$$$$

  Mrv2220 08292413132D          

 17 17  0  0  0  0            999 V2000
   -0.7145    3.7125    0.0000 C   0  0  0  0  0  0  0  0  0  0  0  0
   -0.7145    2.8875    0.0000 O   0  0  0  0  0  0  0  0  0  0  0  0
    0.0000    2.4750    0.0000 P   0  0  0  0  0  0  0  0  0  0  0  0
   -0.4125    1.7605    0.0000 S   0  0  0  0  0  0  0  0  0  0  0  0
    0.4125    3.1895    0.0000 O   0  0  0  0  0  0  0  0  0  0  0  0
    1.2375    3.1895    0.0000 C   0  0  0  0  0  0  0  0  0  0  0  0
    0.7145    2.0625    0.0000 O   0  0  0  0  0  0  0  0  0  0  0  0
    0.7145    1.2375    0.0000 C   0  0  0  0  0  0  0  0  0  0  0  0
    1.4289    0.8250    0.0000 C   0  0  0  0  0  0  0  0  0  0  0  0
    1.4289   -0.0000    0.0000 C   0  0  0  0  0  0  0  0  0  0  0  0
    0.7145   -0.4125    0.0000 C   0  0  0  0  0  0  0  0  0  0  0  0
    0.7145   -1.2375    0.0000 N   0  3  0  0  0  0  0  0  0  0  0  0
    1.4289   -1.6500    0.0000 O   0  0  0  0  0  0  0  0  0  0  0  0
   -0.0000   -1.6500    0.0000 O   0  5  0  0  0  0  0  0  0  0  0  0
    0.0000    0.0000    0.0000 C   0  0  0  0  0  0  0  0  0  0  0  0
   -0.7145   -0.4125    0.0000 C   0  0  0  0  0  0  0  0  0  0  0  0
    0.0000    0.8250    0.0000 C   0  0  0  0  0  0  0  0  0  0  0  0
  1  2  1  0  0  0  0
  2  3  1  0  0  0  0
  3  4  2  0  0  0  0
  3  5  1  0  0  0  0
  5  6  1  0  0  0  0
  3  7  1  0  0  0  0
  7  8  1  0  0  0  0
  8  9  4  0  0  0  0
  9 10  4  0  0  0  0
 10 11  4  0  0  0  0
 11 12  1  0  0  0  0
 12 13  2  0  0  0  0
 12 14  1  0  0  0  0
 11 15  4  0  0  0  0
 15 16  1  0  0  0  0
 15 17  4  0  0  0  0
  8 17  4  0  0  0  0
M  CHG  2  12   1  14  -1
M  END
> <activity>
98.4

> <InChiKey>
ZNOLGFHPUIJIMJ-UHFFFAOYSA-N

$$$$

  Mrv2220 08292413132D          

 25 26  0  0  0  0            999 V2000
   -2.8579    2.4750    0.0000 C   0  0  0  0  0  0  0  0  0  0  0  0
   -2.8579    1.6500    0.0000 C   0  0  0  0  0  0  0  0  0  0  0  0
   -3.5724    1.2375    0.0000 C   0  0  0  0  0  0  0  0  0  0  0  0
   -2.1434    1.2375    0.0000 O   0  0  0  0  0  0  0  0  0  0  0  0
   -2.1434    0.4125    0.0000 C   0  0  0  0  0  0  0  0  0  0  0  0
   -2.8579   -0.0000    0.0000 O   0  0  0  0  0  0  0  0  0  0  0  0
   -1.4289   -0.0000    0.0000 C   0  0  0  0  0  0  0  0  0  0  0  0
   -1.8414   -0.7145    0.0000 C   0  0  0  0  0  0  0  0  0  0  0  0
   -1.0164    0.7145    0.0000 C   0  0  0  0  0  0  0  0  0  0  0  0
   -0.7145   -0.4125    0.0000 O   0  0  0  0  0  0  0  0  0  0  0  0
   -0.7145   -1.2375    0.0000 C   0  0  0  0  0  0  0  0  0  0  0  0
    0.0000   -1.6500    0.0000 C   0  0  0  0  0  0  0  0  0  0  0  0
    0.0000   -2.4750    0.0000 C   0  0  0  0  0  0  0  0  0  0  0  0
   -0.7145   -2.8875    0.0000 C   0  0  0  0  0  0  0  0  0  0  0  0
   -0.7145   -3.7125    0.0000 C   0  0  0  0  0  0  0  0  0  0  0  0
   -1.4289   -4.1250    0.0000 O   0  0  0  0  0  0  0  0  0  0  0  0
    0.0000   -4.1250    0.0000 C   0  0  0  0  0  0  0  0  0  0  0  0
    0.7145   -3.7125    0.0000 C   0  0  0  0  0  0  0  0  0  0  0  0
    1.4289   -4.1250    0.0000 C   0  0  0  0  0  0  0  0  0  0  0  0
    1.4289   -4.9500    0.0000 C   0  0  0  0  0  0  0  0  0  0  0  0
    2.1434   -5.3625    0.0000 Cl  0  0  0  0  0  0  0  0  0  0  0  0
    0.7145   -5.3625    0.0000 C   0  0  0  0  0  0  0  0  0  0  0  0
    0.0000   -4.9500    0.0000 C   0  0  0  0  0  0  0  0  0  0  0  0
   -1.4289   -2.4750    0.0000 C   0  0  0  0  0  0  0  0  0  0  0  0
   -1.4289   -1.6500    0.0000 C   0  0  0  0  0  0  0  0  0  0  0  0
  1  2  1  0  0  0  0
  2  3  1  0  0  0  0
  2  4  1  0  0  0  0
  4  5  1  0  0  0  0
  5  6  2  0  0  0  0
  5  7  1  0  0  0  0
  7  8  1  0  0  0  0
  7  9  1  0  0  0  0
  7 10  1  0  0  0  0
 10 11  1  0  0  0  0
 11 12  4  0  0  0  0
 12 13  4  0  0  0  0
 13 14  4  0  0  0  0
 14 15  1  0  0  0  0
 15 16  2  0  0  0  0
 15 17  1  0  0  0  0
 17 18  4  0  0  0  0
 18 19  4  0  0  0  0
 19 20  4  0  0  0  0
 20 21  1  0  0  0  0
 20 22  4  0  0  0  0
 22 23  4  0  0  0  0
 17 23  4  0  0  0  0
 14 24  4  0  0  0  0
 24 25  4  0  0  0  0
 11 25  4  0  0  0  0
M  END
> <activity>
24.8

> <InChiKey>
YMTINGFKWWXKFG-UHFFFAOYSA-N

$$$$

  Mrv2220 08292413132D          

 22 23  0  0  0  0            999 V2000
   -5.0013   -7.0125    0.0000 C   0  0  0  0  0  0  0  0  0  0  0  0
   -4.2868   -6.6000    0.0000 C   0  0  0  0  0  0  0  0  0  0  0  0
   -3.5724   -7.0125    0.0000 O   0  0  0  0  0  0  0  0  0  0  0  0
   -2.8579   -6.6000    0.0000 C   0  0  0  0  0  0  0  0  0  0  0  0
   -2.8579   -5.7750    0.0000 O   0  0  0  0  0  0  0  0  0  0  0  0
   -2.1434   -7.0125    0.0000 N   0  0  0  0  0  0  0  0  0  0  0  0
   -1.4289   -6.6000    0.0000 C   0  0  0  0  0  0  0  0  0  0  0  0
   -0.7145   -7.0125    0.0000 C   0  0  0  0  0  0  0  0  0  0  0  0
    0.0000   -6.6000    0.0000 O   0  0  0  0  0  0  0  0  0  0  0  0
    0.7145   -7.0125    0.0000 C   0  0  0  0  0  0  0  0  0  0  0  0
    1.4289   -6.6000    0.0000 C   0  0  0  0  0  0  0  0  0  0  0  0
    2.1434   -7.0125    0.0000 C   0  0  0  0  0  0  0  0  0  0  0  0
    2.1434   -7.8375    0.0000 C   0  0  0  0  0  0  0  0  0  0  0  0
    2.8579   -8.2500    0.0000 O   0  0  0  0  0  0  0  0  0  0  0  0
    3.5724   -7.8375    0.0000 C   0  0  0  0  0  0  0  0  0  0  0  0
    3.5724   -7.0125    0.0000 C   0  0  0  0  0  0  0  0  0  0  0  0
    4.2868   -6.6000    0.0000 C   0  0  0  0  0  0  0  0  0  0  0  0
    5.0013   -7.0125    0.0000 C   0  0  0  0  0  0  0  0  0  0  0  0
    5.0013   -7.8375    0.0000 C   0  0  0  0  0  0  0  0  0  0  0  0
    4.2868   -8.2500    0.0000 C   0  0  0  0  0  0  0  0  0  0  0  0
    1.4289   -8.2500    0.0000 C   0  0  0  0  0  0  0  0  0  0  0  0
    0.7145   -7.8375    0.0000 C   0  0  0  0  0  0  0  0  0  0  0  0
  1  2  1  0  0  0  0
  2  3  1  0  0  0  0
  3  4  1  0  0  0  0
  4  5  2  0  0  0  0
  4  6  1  0  0  0  0
  6  7  1  0  0  0  0
  7  8  1  0  0  0  0
  8  9  1  0  0  0  0
  9 10  1  0  0  0  0
 10 11  4  0  0  0  0
 11 12  4  0  0  0  0
 12 13  4  0  0  0  0
 13 14  1  0  0  0  0
 14 15  1  0  0  0  0
 15 16  4  0  0  0  0
 16 17  4  0  0  0  0
 17 18  4  0  0  0  0
 18 19  4  0  0  0  0
 19 20  4  0  0  0  0
 15 20  4  0  0  0  0
 13 21  4  0  0  0  0
 21 22  4  0  0  0  0
 10 22  4  0  0  0  0
M  END
> <activity>
83.7

> <InChiKey>
HJUFTIJOISQSKQ-UHFFFAOYSA-N

$$$$

  Mrv2220 08292413132D          

 16 16  0  0  0  0            999 V2000
   -0.7145    3.7125    0.0000 C   0  0  0  0  0  0  0  0  0  0  0  0
   -0.7145    2.8875    0.0000 O   0  0  0  0  0  0  0  0  0  0  0  0
    0.0000    2.4750    0.0000 P   0  0  0  0  0  0  0  0  0  0  0  0
   -0.4125    1.7605    0.0000 S   0  0  0  0  0  0  0  0  0  0  0  0
    0.4125    3.1895    0.0000 O   0  0  0  0  0  0  0  0  0  0  0  0
    1.2375    3.1895    0.0000 C   0  0  0  0  0  0  0  0  0  0  0  0
    0.7145    2.0625    0.0000 O   0  0  0  0  0  0  0  0  0  0  0  0
    0.7145    1.2375    0.0000 C   0  0  0  0  0  0  0  0  0  0  0  0
    1.4289    0.8250    0.0000 C   0  0  0  0  0  0  0  0  0  0  0  0
    1.4289   -0.0000    0.0000 C   0  0  0  0  0  0  0  0  0  0  0  0
    0.7145   -0.4125    0.0000 C   0  0  0  0  0  0  0  0  0  0  0  0
    0.7145   -1.2375    0.0000 S   0  0  0  0  0  0  0  0  0  0  0  0
    1.4289   -1.6500    0.0000 C   0  0  0  0  0  0  0  0  0  0  0  0
    0.0000    0.0000    0.0000 C   0  0  0  0  0  0  0  0  0  0  0  0
   -0.7145   -0.4125    0.0000 C   0  0  0  0  0  0  0  0  0  0  0  0
    0.0000    0.8250    0.0000 C   0  0  0  0  0  0  0  0  0  0  0  0
  1  2  1  0  0  0  0
  2  3  1  0  0  0  0
  3  4  2  0  0  0  0
  3  5  1  0  0  0  0
  5  6  1  0  0  0  0
  3  7  1  0  0  0  0
  7  8  1  0  0  0  0
  8  9  4  0  0  0  0
  9 10  4  0  0  0  0
 10 11  4  0  0  0  0
 11 12  1  0  0  0  0
 12 13  1  0  0  0  0
 11 14  4  0  0  0  0
 14 15  1  0  0  0  0
 14 16  4  0  0  0  0
  8 16  4  0  0  0  0
M  END
> <activity>
94.0

> <InChiKey>
PNVJTZOFSHSLTO-UHFFFAOYSA-N

$$$$

  Mrv2220 08292413132D          

 12 12  0  0  0  0            999 V2000
   -0.7145    3.7125    0.0000 C   0  0  0  0  0  0  0  0  0  0  0  0
    0.0000    3.3000    0.0000 N   0  0  0  0  0  0  0  0  0  0  0  0
    0.7145    3.7125    0.0000 C   0  0  0  0  0  0  0  0  0  0  0  0
    0.0000    2.4750    0.0000 C   0  0  0  0  0  0  0  0  0  0  0  0
   -0.7145    2.0625    0.0000 O   0  0  0  0  0  0  0  0  0  0  0  0
    0.7145    2.0625    0.0000 N   0  0  0  0  0  0  0  0  0  0  0  0
    0.7145    1.2375    0.0000 C   0  0  0  0  0  0  0  0  0  0  0  0
    1.4289    0.8250    0.0000 C   0  0  0  0  0  0  0  0  0  0  0  0
    1.4289   -0.0000    0.0000 C   0  0  0  0  0  0  0  0  0  0  0  0
    0.7145   -0.4125    0.0000 C   0  0  0  0  0  0  0  0  0  0  0  0
    0.0000    0.0000    0.0000 C   0  0  0  0  0  0  0  0  0  0  0  0
    0.0000    0.8250    0.0000 C   0  0  0  0  0  0  0  0  0  0  0  0
  1  2  1  0  0  0  0
  2  3  1  0  0  0  0
  2  4  1  0  0  0  0
  4  5  2  0  0  0  0
  4  6  1  0  0  0  0
  6  7  1  0  0  0  0
  7  8  4  0  0  0  0
  8  9  4  0  0  0  0
  9 10  4  0  0  0  0
 10 11  4  0  0  0  0
 11 12  4  0  0  0  0
  7 12  4  0  0  0  0
M  END
> <activity>
6.9

> <InChiKey>
XXOYNJXVWVNOOJ-UHFFFAOYSA-N

$$$$

  Mrv2220 08292413132D          

 26 27  0  0  0  0            999 V2000
    0.7145    0.4125    0.0000 N   0  0  0  0  0  0  0  0  0  0  0  0
    0.7145   -0.4125    0.0000 C   0  0  0  0  0  0  0  0  0  0  0  0
    0.7145   -1.2375    0.0000 C   0  0  0  0  0  0  0  0  0  0  0  0
    1.3819   -1.7224    0.0000 N   0  0  0  0  0  0  0  0  0  0  0  0
    1.1270   -2.5070    0.0000 N   0  0  0  0  0  0  0  0  0  0  0  0
    1.6119   -3.1745    0.0000 C   0  0  0  0  0  0  0  0  0  0  0  0
    2.4324   -3.0882    0.0000 C   0  0  0  0  0  0  0  0  0  0  0  0
    2.7679   -2.3346    0.0000 Cl  0  0  0  0  0  0  0  0  0  0  0  0
    2.9173   -3.7557    0.0000 C   0  0  0  0  0  0  0  0  0  0  0  0
    2.5817   -4.5094    0.0000 C   0  0  0  0  0  0  0  0  0  0  0  0
    3.0667   -5.1768    0.0000 C   0  0  0  0  0  0  0  0  0  0  0  0
    3.5516   -5.8442    0.0000 F   0  0  0  0  0  0  0  0  0  0  0  0
    3.7341   -4.6919    0.0000 F   0  0  0  0  0  0  0  0  0  0  0  0
    2.3992   -5.6617    0.0000 F   0  0  0  0  0  0  0  0  0  0  0  0
    1.7613   -4.5956    0.0000 C   0  0  0  0  0  0  0  0  0  0  0  0
    1.2763   -3.9282    0.0000 C   0  0  0  0  0  0  0  0  0  0  0  0
    0.4559   -4.0144    0.0000 Cl  0  0  0  0  0  0  0  0  0  0  0  0
    0.3020   -2.5070    0.0000 C   0  0  0  0  0  0  0  0  0  0  0  0
   -0.1830   -3.1745    0.0000 N   0  0  0  0  0  0  0  0  0  0  0  0
    0.0470   -1.7224    0.0000 C   0  0  0  0  0  0  0  0  0  0  0  0
   -0.7376   -1.4675    0.0000 S   0  3  0  0  0  0  0  0  0  0  0  0
   -0.9091   -0.6605    0.0000 O   0  5  0  0  0  0  0  0  0  0  0  0
   -1.3507   -2.0195    0.0000 C   0  0  0  0  0  0  0  0  0  0  0  0
   -1.9638   -2.5715    0.0000 F   0  0  0  0  0  0  0  0  0  0  0  0
   -1.9027   -1.4064    0.0000 F   0  0  0  0  0  0  0  0  0  0  0  0
   -0.7987   -2.6326    0.0000 F   0  0  0  0  0  0  0  0  0  0  0  0
  1  2  3  0  0  0  0
  2  3  1  0  0  0  0
  3  4  4  0  0  0  0
  4  5  4  0  0  0  0
  5  6  1  0  0  0  0
  6  7  4  0  0  0  0
  7  8  1  0  0  0  0
  7  9  4  0  0  0  0
  9 10  4  0  0  0  0
 10 11  1  0  0  0  0
 11 12  1  0  0  0  0
 11 13  1  0  0  0  0
 11 14  1  0  0  0  0
 10 15  4  0  0  0  0
 15 16  4  0  0  0  0
  6 16  4  0  0  0  0
 16 17  1  0  0  0  0
  5 18  4  0  0  0  0
 18 19  1  0  0  0  0
 18 20  4  0  0  0  0
  3 20  4  0  0  0  0
 20 21  1  0  0  0  0
 21 22  1  0  0  0  0
 21 23  1  0  0  0  0
 23 24  1  0  0  0  0
 23 25  1  0  0  0  0
 23 26  1  0  0  0  0
M  CHG  2  21   1  22  -1
M  END
> <activity>
57.4

> <InChiKey>
ZOCSXAVNDGMNBV-UHFFFAOYSA-N

$$$$

  Mrv2220 08292413132D          

 17 19  0  0  0  0            999 V2000
    1.4289   -2.4750    0.0000 O   0  0  0  0  0  0  0  0  0  0  0  0
    1.4289   -1.6500    0.0000 C   0  0  0  0  0  0  0  0  0  0  0  0
    0.7145   -1.2375    0.0000 C   0  0  0  0  0  0  0  0  0  0  0  0
    0.7145   -0.4125    0.0000 C   0  0  0  0  0  0  0  0  0  0  0  0
    0.0000    0.0000    0.0000 C   0  0  0  0  0  0  0  0  0  0  0  0
   -0.7145   -0.4125    0.0000 C   0  0  0  0  0  0  0  0  0  0  0  0
   -1.4289    0.0000    0.0000 C   0  0  0  0  0  0  0  0  0  0  0  0
   -1.4289    0.8250    0.0000 C   0  0  0  0  0  0  0  0  0  0  0  0
   -0.7145    1.2375    0.0000 C   0  0  0  0  0  0  0  0  0  0  0  0
    0.0000    0.8250    0.0000 C   0  0  0  0  0  0  0  0  0  0  0  0
    1.4289    0.0000    0.0000 O   0  0  0  0  0  0  0  0  0  0  0  0
    2.1434   -0.4125    0.0000 C   0  0  0  0  0  0  0  0  0  0  0  0
    2.8579    0.0000    0.0000 C   0  0  0  0  0  0  0  0  0  0  0  0
    3.5724   -0.4125    0.0000 C   0  0  0  0  0  0  0  0  0  0  0  0
    3.5724   -1.2375    0.0000 C   0  0  0  0  0  0  0  0  0  0  0  0
    2.8579   -1.6500    0.0000 C   0  0  0  0  0  0  0  0  0  0  0  0
    2.1434   -1.2375    0.0000 C   0  0  0  0  0  0  0  0  0  0  0  0
  1  2  2  0  0  0  0
  2  3  4  0  0  0  0
  3  4  4  0  0  0  0
  4  5  1  0  0  0  0
  5  6  4  0  0  0  0
  6  7  4  0  0  0  0
  7  8  4  0  0  0  0
  8  9  4  0  0  0  0
  9 10  4  0  0  0  0
  5 10  4  0  0  0  0
  4 11  4  0  0  0  0
 11 12  4  0  0  0  0
 12 13  4  0  0  0  0
 13 14  4  0  0  0  0
 14 15  4  0  0  0  0
 15 16  4  0  0  0  0
 16 17  4  0  0  0  0
  2 17  4  0  0  0  0
 12 17  4  0  0  0  0
M  END
> <activity>
95.1

> <InChiKey>
VHBFFQKBGNRLFZ-UHFFFAOYSA-N

$$$$

  Mrv2220 08292413132D          

 29 30  0  0  0  0            999 V2000
   -1.4289   -0.0000    0.0000 O   0  0  0  0  0  0  0  0  0  0  0  0
   -0.7145   -0.4125    0.0000 N   0  3  0  0  0  0  0  0  0  0  0  0
   -0.3789    0.3412    0.0000 O   0  5  0  0  0  0  0  0  0  0  0  0
   -0.7145   -1.2375    0.0000 C   0  0  0  0  0  0  0  0  0  0  0  0
   -1.4289   -1.6500    0.0000 C   0  0  0  0  0  0  0  0  0  0  0  0
   -1.4289   -2.4750    0.0000 C   0  0  0  0  0  0  0  0  0  0  0  0
   -2.1434   -2.8875    0.0000 C   0  0  0  0  0  0  0  0  0  0  0  0
   -2.8579   -3.3000    0.0000 F   0  0  0  0  0  0  0  0  0  0  0  0
   -1.7309   -3.6020    0.0000 F   0  0  0  0  0  0  0  0  0  0  0  0
   -2.5559   -2.1730    0.0000 F   0  0  0  0  0  0  0  0  0  0  0  0
   -0.7145   -2.8875    0.0000 C   0  0  0  0  0  0  0  0  0  0  0  0
   -0.7145   -3.7125    0.0000 Cl  0  0  0  0  0  0  0  0  0  0  0  0
    0.0000   -2.4750    0.0000 C   0  0  0  0  0  0  0  0  0  0  0  0
    0.7145   -2.8875    0.0000 N   0  3  0  0  0  0  0  0  0  0  0  0
    0.7145   -3.7125    0.0000 O   0  0  0  0  0  0  0  0  0  0  0  0
    1.4289   -2.4750    0.0000 O   0  5  0  0  0  0  0  0  0  0  0  0
    0.0000   -1.6500    0.0000 C   0  0  0  0  0  0  0  0  0  0  0  0
    0.7145   -1.2375    0.0000 N   0  0  0  0  0  0  0  0  0  0  0  0
    0.7145   -0.4125    0.0000 C   0  0  0  0  0  0  0  0  0  0  0  0
    0.0000   -0.0000    0.0000 N   0  0  0  0  0  0  0  0  0  0  0  0
    0.0000    0.8250    0.0000 C   0  0  0  0  0  0  0  0  0  0  0  0
    0.7145    1.2375    0.0000 C   0  0  0  0  0  0  0  0  0  0  0  0
    0.7145    2.0625    0.0000 C   0  0  0  0  0  0  0  0  0  0  0  0
    0.7145    2.8875    0.0000 F   0  0  0  0  0  0  0  0  0  0  0  0
    1.5395    2.0625    0.0000 F   0  0  0  0  0  0  0  0  0  0  0  0
   -0.1105    2.0625    0.0000 F   0  0  0  0  0  0  0  0  0  0  0  0
    1.4289    0.8250    0.0000 C   0  0  0  0  0  0  0  0  0  0  0  0
    1.4289   -0.0000    0.0000 C   0  0  0  0  0  0  0  0  0  0  0  0
    2.1434   -0.4125    0.0000 Cl  0  0  0  0  0  0  0  0  0  0  0  0
  1  2  2  0  0  0  0
  2  3  1  0  0  0  0
  2  4  1  0  0  0  0
  4  5  4  0  0  0  0
  5  6  4  0  0  0  0
  6  7  1  0  0  0  0
  7  8  1  0  0  0  0
  7  9  1  0  0  0  0
  7 10  1  0  0  0  0
  6 11  4  0  0  0  0
 11 12  1  0  0  0  0
 11 13  4  0  0  0  0
 13 14  1  0  0  0  0
 14 15  2  0  0  0  0
 14 16  1  0  0  0  0
 13 17  4  0  0  0  0
  4 17  4  0  0  0  0
 17 18  1  0  0  0  0
 18 19  1  0  0  0  0
 19 20  4  0  0  0  0
 20 21  4  0  0  0  0
 21 22  4  0  0  0  0
 22 23  1  0  0  0  0
 23 24  1  0  0  0  0
 23 25  1  0  0  0  0
 23 26  1  0  0  0  0
 22 27  4  0  0  0  0
 27 28  4  0  0  0  0
 19 28  4  0  0  0  0
 28 29  1  0  0  0  0
M  CHG  4   2   1   3  -1  14   1  16  -1
M  END
> <activity>
108.7

> <InChiKey>
UZCGKGPEKUCDTF-UHFFFAOYSA-N

$$$$

  Mrv2220 08292413132D          

 22 24  0  0  0  0            999 V2000
   -1.7347   -1.6011    0.0000 O   0  0  0  0  0  0  0  0  0  0  0  0
   -1.3222   -0.8866    0.0000 C   0  0  0  0  0  0  0  0  0  0  0  0
   -0.6078   -1.2991    0.0000 C   0  0  0  0  0  0  0  0  0  0  0  0
   -0.6078   -2.1241    0.0000 N   0  0  0  0  0  0  0  0  0  0  0  0
    0.0597   -2.6090    0.0000 C   0  0  0  0  0  0  0  0  0  0  0  0
   -0.1953   -3.3937    0.0000 N   0  0  0  0  0  0  0  0  0  0  0  0
   -1.0203   -3.3937    0.0000 C   0  0  0  0  0  0  0  0  0  0  0  0
   -1.2752   -2.6090    0.0000 N   0  0  0  0  0  0  0  0  0  0  0  0
   -0.9097   -0.1721    0.0000 C   0  0  0  0  0  0  0  0  0  0  0  0
   -0.0847   -0.1721    0.0000 N   0  0  0  0  0  0  0  0  0  0  0  0
    0.4002    0.4953    0.0000 C   0  0  0  0  0  0  0  0  0  0  0  0
    1.1848    0.2404    0.0000 N   0  0  0  0  0  0  0  0  0  0  0  0
    1.1848   -0.5846    0.0000 C   0  0  0  0  0  0  0  0  0  0  0  0
    0.4002   -0.8396    0.0000 N   0  0  0  0  0  0  0  0  0  0  0  0
   -2.0367   -0.4741    0.0000 C   0  0  0  0  0  0  0  0  0  0  0  0
   -2.7512   -0.8866    0.0000 C   0  0  0  0  0  0  0  0  0  0  0  0
   -3.4656   -0.4741    0.0000 C   0  0  0  0  0  0  0  0  0  0  0  0
   -3.4656    0.3509    0.0000 C   0  0  0  0  0  0  0  0  0  0  0  0
   -4.1801    0.7634    0.0000 F   0  0  0  0  0  0  0  0  0  0  0  0
   -2.7512    0.7634    0.0000 C   0  0  0  0  0  0  0  0  0  0  0  0
   -2.0367    0.3509    0.0000 C   0  0  0  0  0  0  0  0  0  0  0  0
   -1.3222    0.7634    0.0000 F   0  0  0  0  0  0  0  0  0  0  0  0
  1  2  1  0  0  0  0
  2  3  1  0  0  0  0
  3  4  1  0  0  0  0
  4  5  4  0  0  0  0
  5  6  4  0  0  0  0
  6  7  4  0  0  0  0
  7  8  4  0  0  0  0
  4  8  4  0  0  0  0
  2  9  1  0  0  0  0
  9 10  1  0  0  0  0
 10 11  4  0  0  0  0
 11 12  4  0  0  0  0
 12 13  4  0  0  0  0
 13 14  4  0  0  0  0
 10 14  4  0  0  0  0
  2 15  1  0  0  0  0
 15 16  4  0  0  0  0
 16 17  4  0  0  0  0
 17 18  4  0  0  0  0
 18 19  1  0  0  0  0
 18 20  4  0  0  0  0
 20 21  4  0  0  0  0
 15 21  4  0  0  0  0
 21 22  1  0  0  0  0
M  END
> <activity>
8.8

> <InChiKey>
RFHAOTPXVQNOHP-UHFFFAOYSA-N

$$$$

  Mrv2220 08292413132D          

 24 25  0  0  0  0            999 V2000
    0.4125   -2.3645    0.0000 C   0  0  0  0  0  0  0  0  0  0  0  0
    0.0000   -1.6500    0.0000 C   0  0  0  0  0  0  0  0  0  0  0  0
   -0.8250   -1.6500    0.0000 C   0  0  0  0  0  0  0  0  0  0  0  0
    0.4125   -0.9355    0.0000 N   0  0  0  0  0  0  0  0  0  0  0  0
    1.2375   -0.9355    0.0000 C   0  0  0  0  0  0  0  0  0  0  0  0
    1.6500   -0.2211    0.0000 O   0  0  0  0  0  0  0  0  0  0  0  0
    1.6500   -1.6500    0.0000 C   0  0  0  0  0  0  0  0  0  0  0  0
    2.4750   -1.6500    0.0000 O   0  0  0  0  0  0  0  0  0  0  0  0
    2.8875   -2.3645    0.0000 C   0  0  0  0  0  0  0  0  0  0  0  0
    3.7080   -2.4507    0.0000 N   0  0  0  0  0  0  0  0  0  0  0  0
    3.8795   -3.2577    0.0000 N   0  0  0  0  0  0  0  0  0  0  0  0
    3.1650   -3.6702    0.0000 C   0  0  0  0  0  0  0  0  0  0  0  0
    3.0788   -4.4907    0.0000 C   0  0  0  0  0  0  0  0  0  0  0  0
    2.9926   -5.3111    0.0000 F   0  0  0  0  0  0  0  0  0  0  0  0
    3.8993   -4.5769    0.0000 F   0  0  0  0  0  0  0  0  0  0  0  0
    2.2583   -4.4044    0.0000 F   0  0  0  0  0  0  0  0  0  0  0  0
    2.5519   -3.1181    0.0000 S   0  0  0  0  0  0  0  0  0  0  0  0
    0.0000   -0.2211    0.0000 C   0  0  0  0  0  0  0  0  0  0  0  0
   -0.8250   -0.2211    0.0000 C   0  0  0  0  0  0  0  0  0  0  0  0
   -1.2375    0.4934    0.0000 C   0  0  0  0  0  0  0  0  0  0  0  0
   -0.8250    1.2079    0.0000 C   0  0  0  0  0  0  0  0  0  0  0  0
   -1.2375    1.9224    0.0000 F   0  0  0  0  0  0  0  0  0  0  0  0
    0.0000    1.2079    0.0000 C   0  0  0  0  0  0  0  0  0  0  0  0
    0.4125    0.4934    0.0000 C   0  0  0  0  0  0  0  0  0  0  0  0
  1  2  1  0  0  0  0
  2  3  1  0  0  0  0
  2  4  1  0  0  0  0
  4  5  1  0  0  0  0
  5  6  2  0  0  0  0
  5  7  1  0  0  0  0
  7  8  1  0  0  0  0
  8  9  1  0  0  0  0
  9 10  4  0  0  0  0
 10 11  4  0  0  0  0
 11 12  4  0  0  0  0
 12 13  1  0  0  0  0
 13 14  1  0  0  0  0
 13 15  1  0  0  0  0
 13 16  1  0  0  0  0
 12 17  4  0  0  0  0
  9 17  4  0  0  0  0
  4 18  1  0  0  0  0
 18 19  4  0  0  0  0
 19 20  4  0  0  0  0
 20 21  4  0  0  0  0
 21 22  1  0  0  0  0
 21 23  4  0  0  0  0
 23 24  4  0  0  0  0
 18 24  4  0  0  0  0
M  END
> <activity>
66.8

> <InChiKey>
IANUJLZYFUDJIH-UHFFFAOYSA-N

$$$$

  Mrv2220 08292413132D          

 33 35  0  0  0  0            999 V2000
   -2.1434   -5.3625    0.0000 O   0  0  0  0  0  0  0  0  0  0  0  0
   -2.1434   -4.5375    0.0000 C   0  0  0  0  0  0  0  0  0  0  0  0
   -2.8579   -4.1250    0.0000 N   0  0  0  0  0  0  0  0  0  0  0  0
   -3.5724   -4.5375    0.0000 C   0  0  0  0  0  0  0  0  0  0  0  0
   -3.5724   -5.3625    0.0000 O   0  0  0  0  0  0  0  0  0  0  0  0
   -4.2868   -4.1250    0.0000 C   0  0  0  0  0  0  0  0  0  0  0  0
   -5.0013   -4.5375    0.0000 C   0  0  0  0  0  0  0  0  0  0  0  0
   -5.0013   -5.3625    0.0000 F   0  0  0  0  0  0  0  0  0  0  0  0
   -5.7158   -4.1250    0.0000 C   0  0  0  0  0  0  0  0  0  0  0  0
   -5.7158   -3.3000    0.0000 C   0  0  0  0  0  0  0  0  0  0  0  0
   -5.0013   -2.8875    0.0000 C   0  0  0  0  0  0  0  0  0  0  0  0
   -4.2868   -3.3000    0.0000 C   0  0  0  0  0  0  0  0  0  0  0  0
   -3.5724   -2.8875    0.0000 F   0  0  0  0  0  0  0  0  0  0  0  0
   -1.4289   -4.1250    0.0000 N   0  0  0  0  0  0  0  0  0  0  0  0
   -0.7145   -4.5375    0.0000 C   0  0  0  0  0  0  0  0  0  0  0  0
    0.0000   -4.1250    0.0000 C   0  0  0  0  0  0  0  0  0  0  0  0
    0.7145   -4.5375    0.0000 C   0  0  0  0  0  0  0  0  0  0  0  0
    0.7145   -5.3625    0.0000 C   0  0  0  0  0  0  0  0  0  0  0  0
    1.4289   -5.7750    0.0000 O   0  0  0  0  0  0  0  0  0  0  0  0
    2.1434   -5.3625    0.0000 C   0  0  0  0  0  0  0  0  0  0  0  0
    2.1434   -4.5375    0.0000 C   0  0  0  0  0  0  0  0  0  0  0  0
    2.8579   -4.1250    0.0000 C   0  0  0  0  0  0  0  0  0  0  0  0
    3.5724   -4.5375    0.0000 C   0  0  0  0  0  0  0  0  0  0  0  0
    4.2868   -4.1250    0.0000 C   0  0  0  0  0  0  0  0  0  0  0  0
    5.0013   -3.7125    0.0000 F   0  0  0  0  0  0  0  0  0  0  0  0
    4.6993   -4.8395    0.0000 F   0  0  0  0  0  0  0  0  0  0  0  0
    3.8743   -3.4105    0.0000 F   0  0  0  0  0  0  0  0  0  0  0  0
    3.5724   -5.3625    0.0000 C   0  0  0  0  0  0  0  0  0  0  0  0
    2.8579   -5.7750    0.0000 C   0  0  0  0  0  0  0  0  0  0  0  0
    2.8579   -6.6000    0.0000 Cl  0  0  0  0  0  0  0  0  0  0  0  0
    0.0000   -5.7750    0.0000 C   0  0  0  0  0  0  0  0  0  0  0  0
   -0.7145   -5.3625    0.0000 C   0  0  0  0  0  0  0  0  0  0  0  0
   -1.4289   -5.7750    0.0000 F   0  0  0  0  0  0  0  0  0  0  0  0
  1  2  2  0  0  0  0
  2  3  1  0  0  0  0
  3  4  1  0  0  0  0
  4  5  2  0  0  0  0
  4  6  1  0  0  0  0
  6  7  4  0  0  0  0
  7  8  1  0  0  0  0
  7  9  4  0  0  0  0
  9 10  4  0  0  0  0
 10 11  4  0  0  0  0
 11 12  4  0  0  0  0
  6 12  4  0  0  0  0
 12 13  1  0  0  0  0
  2 14  1  0  0  0  0
 14 15  1  0  0  0  0
 15 16  4  0  0  0  0
 16 17  4  0  0  0  0
 17 18  4  0  0  0  0
 18 19  1  0  0  0  0
 19 20  1  0  0  0  0
 20 21  4  0  0  0  0
 21 22  4  0  0  0  0
 22 23  4  0  0  0  0
 23 24  1  0  0  0  0
 24 25  1  0  0  0  0
 24 26  1  0  0  0  0
 24 27  1  0  0  0  0
 23 28  4  0  0  0  0
 28 29  4  0  0  0  0
 20 29  4  0  0  0  0
 29 30  1  0  0  0  0
 18 31  4  0  0  0  0
 31 32  4  0  0  0  0
 15 32  4  0  0  0  0
 32 33  1  0  0  0  0
M  END
> <activity>
20.0

> <InChiKey>
RYLHNOVXKPXDIP-UHFFFAOYSA-N

$$$$

  Mrv2220 08292413132D          

 27 28  0  0  0  0            999 V2000
   -2.8579   -5.7750    0.0000 C   0  0  0  0  0  0  0  0  0  0  0  0
   -2.1434   -5.3625    0.0000 C   0  0  0  0  0  0  0  0  0  0  0  0
   -1.4289   -5.7750    0.0000 O   0  0  0  0  0  0  0  0  0  0  0  0
   -0.7145   -5.3625    0.0000 C   0  0  0  0  0  0  0  0  0  0  0  0
   -0.7145   -4.5375    0.0000 O   0  0  0  0  0  0  0  0  0  0  0  0
    0.0000   -5.7750    0.0000 C   0  0  0  0  0  0  0  0  0  0  0  0
    0.7145   -5.3625    0.0000 O   0  0  0  0  0  0  0  0  0  0  0  0
    1.4289   -5.7750    0.0000 C   0  0  0  0  0  0  0  0  0  0  0  0
    2.1434   -5.3625    0.0000 C   0  0  0  0  0  0  0  0  0  0  0  0
    2.8579   -5.7750    0.0000 C   0  0  0  0  0  0  0  0  0  0  0  0
    3.5724   -5.3625    0.0000 N   0  0  0  0  0  0  0  0  0  0  0  0
    3.5724   -4.5375    0.0000 N   0  0  0  0  0  0  0  0  0  0  0  0
    4.2868   -4.1250    0.0000 C   0  0  0  0  0  0  0  0  0  0  0  0
    5.0013   -4.5375    0.0000 C   0  0  0  0  0  0  0  0  0  0  0  0
    5.7158   -4.1250    0.0000 C   0  0  0  0  0  0  0  0  0  0  0  0
    6.4302   -3.7125    0.0000 F   0  0  0  0  0  0  0  0  0  0  0  0
    6.1283   -4.8395    0.0000 F   0  0  0  0  0  0  0  0  0  0  0  0
    5.3033   -3.4105    0.0000 F   0  0  0  0  0  0  0  0  0  0  0  0
    5.0013   -5.3625    0.0000 C   0  0  0  0  0  0  0  0  0  0  0  0
    5.7158   -5.7750    0.0000 C   0  0  0  0  0  0  0  0  0  0  0  0
    4.2868   -5.7750    0.0000 C   0  0  0  0  0  0  0  0  0  0  0  0
    4.2868   -6.6000    0.0000 O   0  0  0  0  0  0  0  0  0  0  0  0
    2.8579   -6.6000    0.0000 C   0  0  0  0  0  0  0  0  0  0  0  0
    3.5724   -7.0125    0.0000 F   0  0  0  0  0  0  0  0  0  0  0  0
    2.1434   -7.0125    0.0000 C   0  0  0  0  0  0  0  0  0  0  0  0
    1.4289   -6.6000    0.0000 C   0  0  0  0  0  0  0  0  0  0  0  0
    0.7145   -7.0125    0.0000 Cl  0  0  0  0  0  0  0  0  0  0  0  0
  1  2  1  0  0  0  0
  2  3  1  0  0  0  0
  3  4  1  0  0  0  0
  4  5  2  0  0  0  0
  4  6  1  0  0  0  0
  6  7  1  0  0  0  0
  7  8  1  0  0  0  0
  8  9  4  0  0  0  0
  9 10  4  0  0  0  0
 10 11  1  0  0  0  0
 11 12  4  0  0  0  0
 12 13  4  0  0  0  0
 13 14  4  0  0  0  0
 14 15  1  0  0  0  0
 15 16  1  0  0  0  0
 15 17  1  0  0  0  0
 15 18  1  0  0  0  0
 14 19  4  0  0  0  0
 19 20  1  0  0  0  0
 19 21  4  0  0  0  0
 11 21  4  0  0  0  0
 21 22  2  0  0  0  0
 10 23  4  0  0  0  0
 23 24  1  0  0  0  0
 23 25  4  0  0  0  0
 25 26  4  0  0  0  0
  8 26  4  0  0  0  0
 26 27  1  0  0  0  0
M  END
> <activity>
24.7

> <InChiKey>
DNUAYCRATWAJQE-UHFFFAOYSA-N

$$$$

  Mrv2220 08292413132D          

 28 29  0  0  0  0            999 V2000
    1.4289   -2.4750    0.0000 C   0  0  0  0  0  0  0  0  0  0  0  0
    1.4289   -1.6500    0.0000 C   0  0  0  0  0  0  0  0  0  0  0  0
    0.7145   -1.2375    0.0000 N   0  0  0  0  0  0  0  0  0  0  0  0
    0.0000   -1.6500    0.0000 C   0  0  0  0  0  0  0  0  0  0  0  0
    0.0000   -2.4750    0.0000 C   0  0  0  0  0  0  0  0  0  0  0  0
    0.7145   -2.8875    0.0000 C   0  0  0  0  0  0  0  0  0  0  0  0
    1.5350   -2.9737    0.0000 F   0  0  0  0  0  0  0  0  0  0  0  0
    0.7145   -3.7125    0.0000 C   0  0  0  0  0  0  0  0  0  0  0  0
    0.0000   -4.1250    0.0000 C   0  0  0  0  0  0  0  0  0  0  0  0
   -0.7145   -3.7125    0.0000 C   0  0  0  0  0  0  0  0  0  0  0  0
   -0.7145   -2.8875    0.0000 C   0  0  0  0  0  0  0  0  0  0  0  0
   -1.4289   -2.4750    0.0000 Cl  0  0  0  0  0  0  0  0  0  0  0  0
    0.7145   -0.4125    0.0000 C   0  0  0  0  0  0  0  0  0  0  0  0
    0.0000    0.0000    0.0000 C   0  0  0  0  0  0  0  0  0  0  0  0
   -0.7145   -0.4125    0.0000 N   0  3  0  0  0  0  0  0  0  0  0  0
   -1.4289    0.0000    0.0000 O   0  0  0  0  0  0  0  0  0  0  0  0
   -0.7145   -1.2375    0.0000 O   0  5  0  0  0  0  0  0  0  0  0  0
    0.0000    0.8250    0.0000 C   0  0  0  0  0  0  0  0  0  0  0  0
    0.7145    1.2375    0.0000 C   0  0  0  0  0  0  0  0  0  0  0  0
    0.7145    2.0625    0.0000 C   0  0  0  0  0  0  0  0  0  0  0  0
    0.7145    2.8875    0.0000 F   0  0  0  0  0  0  0  0  0  0  0  0
    1.5395    2.0625    0.0000 F   0  0  0  0  0  0  0  0  0  0  0  0
   -0.1105    2.0625    0.0000 F   0  0  0  0  0  0  0  0  0  0  0  0
    1.4289    0.8250    0.0000 C   0  0  0  0  0  0  0  0  0  0  0  0
    1.4289   -0.0000    0.0000 C   0  0  0  0  0  0  0  0  0  0  0  0
    2.1434   -0.4125    0.0000 N   0  3  0  0  0  0  0  0  0  0  0  0
    2.1434   -1.2375    0.0000 O   0  0  0  0  0  0  0  0  0  0  0  0
    2.8579   -0.0000    0.0000 O   0  5  0  0  0  0  0  0  0  0  0  0
  1  2  1  0  0  0  0
  2  3  1  0  0  0  0
  3  4  1  0  0  0  0
  4  5  1  0  0  0  0
  5  6  4  0  0  0  0
  6  7  1  0  0  0  0
  6  8  4  0  0  0  0
  8  9  4  0  0  0  0
  9 10  4  0  0  0  0
 10 11  4  0  0  0  0
  5 11  4  0  0  0  0
 11 12  1  0  0  0  0
  3 13  1  0  0  0  0
 13 14  4  0  0  0  0
 14 15  1  0  0  0  0
 15 16  2  0  0  0  0
 15 17  1  0  0  0  0
 14 18  4  0  0  0  0
 18 19  4  0  0  0  0
 19 20  1  0  0  0  0
 20 21  1  0  0  0  0
 20 22  1  0  0  0  0
 20 23  1  0  0  0  0
 19 24  4  0  0  0  0
 24 25  4  0  0  0  0
 13 25  4  0  0  0  0
 25 26  1  0  0  0  0
 26 27  2  0  0  0  0
 26 28  1  0  0  0  0
M  CHG  4  15   1  17  -1  26   1  28  -1
M  END
> <activity>
61.1

> <InChiKey>
PWNAWOCHVWERAR-UHFFFAOYSA-N

$$$$

  Mrv2220 08292413132D          

 26 29  0  0  0  0            999 V2000
    0.0000   -3.3000    0.0000 C   0  0  0  0  0  0  0  0  0  0  0  0
    0.7145   -2.8875    0.0000 C   0  0  0  0  0  0  0  0  0  0  0  0
    1.4289   -2.4750    0.0000 C   0  0  0  0  0  0  0  0  0  0  0  0
    1.4289   -1.6500    0.0000 N   0  0  0  0  0  0  0  0  0  0  0  0
    0.7145   -1.2375    0.0000 C   0  0  0  0  0  0  0  0  0  0  0  0
    0.0000   -1.6500    0.0000 O   0  0  0  0  0  0  0  0  0  0  0  0
    0.7145   -0.4125    0.0000 C   0  0  0  0  0  0  0  0  0  0  0  0
    1.4289    0.0000    0.0000 O   0  0  0  0  0  0  0  0  0  0  0  0
    2.1434   -0.4125    0.0000 C   0  0  0  0  0  0  0  0  0  0  0  0
    2.8579    0.0000    0.0000 C   0  0  0  0  0  0  0  0  0  0  0  0
    3.5724   -0.4125    0.0000 C   0  0  0  0  0  0  0  0  0  0  0  0
    4.2868   -0.0000    0.0000 F   0  0  0  0  0  0  0  0  0  0  0  0
    3.5724   -1.2375    0.0000 C   0  0  0  0  0  0  0  0  0  0  0  0
    4.2868   -1.6500    0.0000 N   0  0  0  0  0  0  0  0  0  0  0  0
    4.3731   -2.4705    0.0000 C   0  0  0  0  0  0  0  0  0  0  0  0
    3.7600   -3.0225    0.0000 O   0  0  0  0  0  0  0  0  0  0  0  0
    5.1800   -2.6420    0.0000 C   0  0  0  0  0  0  0  0  0  0  0  0
    5.5925   -1.9275    0.0000 C   0  0  0  0  0  0  0  0  0  0  0  0
    6.4175   -1.9275    0.0000 C   0  0  0  0  0  0  0  0  0  0  0  0
    6.8300   -2.6420    0.0000 C   0  0  0  0  0  0  0  0  0  0  0  0
    6.4175   -3.3565    0.0000 C   0  0  0  0  0  0  0  0  0  0  0  0
    5.5925   -3.3565    0.0000 C   0  0  0  0  0  0  0  0  0  0  0  0
    5.0405   -1.3144    0.0000 C   0  0  0  0  0  0  0  0  0  0  0  0
    5.2120   -0.5075    0.0000 O   0  0  0  0  0  0  0  0  0  0  0  0
    2.8579   -1.6500    0.0000 C   0  0  0  0  0  0  0  0  0  0  0  0
    2.1434   -1.2375    0.0000 C   0  0  0  0  0  0  0  0  0  0  0  0
  1  2  3  0  0  0  0
  2  3  1  0  0  0  0
  3  4  1  0  0  0  0
  4  5  1  0  0  0  0
  5  6  2  0  0  0  0
  5  7  1  0  0  0  0
  7  8  1  0  0  0  0
  8  9  1  0  0  0  0
  9 10  4  0  0  0  0
 10 11  4  0  0  0  0
 11 12  1  0  0  0  0
 11 13  4  0  0  0  0
 13 14  1  0  0  0  0
 14 15  1  0  0  0  0
 15 16  2  0  0  0  0
 15 17  1  0  0  0  0
 17 18  2  0  0  0  0
 18 19  1  0  0  0  0
 19 20  1  0  0  0  0
 20 21  1  0  0  0  0
 21 22  1  0  0  0  0
 17 22  1  0  0  0  0
 18 23  1  0  0  0  0
 14 23  1  0  0  0  0
 23 24  2  0  0  0  0
 13 25  4  0  0  0  0
 25 26  4  0  0  0  0
  9 26  4  0  0  0  0
  4 26  1  0  0  0  0
M  END
> <activity>
85.2

> <InChiKey>
FOUWCSDKDDHKQP-UHFFFAOYSA-N

$$$$

  Mrv2220 08292413132D          

 16 16  0  0  0  0            999 V2000
    2.1434    3.7125    0.0000 C   0  0  0  0  0  0  0  0  0  0  0  0
    1.4289    3.3000    0.0000 N   0  0  0  0  0  0  0  0  0  0  0  0
    0.7145    3.7125    0.0000 C   0  0  0  0  0  0  0  0  0  0  0  0
    1.4289    2.4750    0.0000 C   0  0  0  0  0  0  0  0  0  0  0  0
    2.1434    2.0625    0.0000 O   0  0  0  0  0  0  0  0  0  0  0  0
    0.7145    2.0625    0.0000 N   0  0  0  0  0  0  0  0  0  0  0  0
    0.7145    1.2375    0.0000 C   0  0  0  0  0  0  0  0  0  0  0  0
    1.4289    0.8250    0.0000 C   0  0  0  0  0  0  0  0  0  0  0  0
    1.4289   -0.0000    0.0000 C   0  0  0  0  0  0  0  0  0  0  0  0
    0.7145   -0.4125    0.0000 C   0  0  0  0  0  0  0  0  0  0  0  0
    0.0000    0.0000    0.0000 C   0  0  0  0  0  0  0  0  0  0  0  0
   -0.7145   -0.4125    0.0000 C   0  0  0  0  0  0  0  0  0  0  0  0
   -1.4289   -0.8250    0.0000 F   0  0  0  0  0  0  0  0  0  0  0  0
   -1.1270    0.3020    0.0000 F   0  0  0  0  0  0  0  0  0  0  0  0
   -0.3020   -1.1270    0.0000 F   0  0  0  0  0  0  0  0  0  0  0  0
    0.0000    0.8250    0.0000 C   0  0  0  0  0  0  0  0  0  0  0  0
  1  2  1  0  0  0  0
  2  3  1  0  0  0  0
  2  4  1  0  0  0  0
  4  5  2  0  0  0  0
  4  6  1  0  0  0  0
  6  7  1  0  0  0  0
  7  8  4  0  0  0  0
  8  9  4  0  0  0  0
  9 10  4  0  0  0  0
 10 11  4  0  0  0  0
 11 12  1  0  0  0  0
 12 13  1  0  0  0  0
 12 14  1  0  0  0  0
 12 15  1  0  0  0  0
 11 16  4  0  0  0  0
  7 16  4  0  0  0  0
M  END
> <activity>
54.8

> <InChiKey>
RZILCCPWPBTYDO-UHFFFAOYSA-N

$$$$

  Mrv2220 08292413132D          

 28 27  0  0  0  0            999 V2000
    0.1105   -7.8375    0.0000 O   0  0  0  0  0  0  0  0  0  0  0  0
    0.1105   -7.0125    0.0000 C   0  0  0  0  0  0  0  0  0  0  0  0
    0.8250   -6.6000    0.0000 C   0  0  0  0  0  0  0  0  0  0  0  0
    0.8250   -5.7750    0.0000 C   0  0  0  0  0  0  0  0  0  0  0  0
    1.6500   -5.7750    0.0000 F   0  0  0  0  0  0  0  0  0  0  0  0
    0.0000   -5.7750    0.0000 F   0  0  0  0  0  0  0  0  0  0  0  0
    0.8250   -4.9500    0.0000 C   0  0  0  0  0  0  0  0  0  0  0  0
    1.6500   -4.9500    0.0000 F   0  0  0  0  0  0  0  0  0  0  0  0
    0.0000   -4.9500    0.0000 F   0  0  0  0  0  0  0  0  0  0  0  0
    0.8250   -4.1250    0.0000 C   0  0  0  0  0  0  0  0  0  0  0  0
    1.6500   -4.1250    0.0000 F   0  0  0  0  0  0  0  0  0  0  0  0
    0.0000   -4.1250    0.0000 F   0  0  0  0  0  0  0  0  0  0  0  0
    0.8250   -3.3000    0.0000 C   0  0  0  0  0  0  0  0  0  0  0  0
    1.6500   -3.3000    0.0000 F   0  0  0  0  0  0  0  0  0  0  0  0
    0.0000   -3.3000    0.0000 F   0  0  0  0  0  0  0  0  0  0  0  0
    0.8250   -2.4750    0.0000 C   0  0  0  0  0  0  0  0  0  0  0  0
    1.6500   -2.4750    0.0000 F   0  0  0  0  0  0  0  0  0  0  0  0
    0.0000   -2.4750    0.0000 F   0  0  0  0  0  0  0  0  0  0  0  0
    0.8250   -1.6500    0.0000 C   0  0  0  0  0  0  0  0  0  0  0  0
    1.6500   -1.6500    0.0000 F   0  0  0  0  0  0  0  0  0  0  0  0
    0.0000   -1.6500    0.0000 F   0  0  0  0  0  0  0  0  0  0  0  0
    0.8250   -0.8250    0.0000 C   0  0  0  0  0  0  0  0  0  0  0  0
    1.6500   -0.8250    0.0000 F   0  0  0  0  0  0  0  0  0  0  0  0
    0.0000   -0.8250    0.0000 F   0  0  0  0  0  0  0  0  0  0  0  0
    0.8250    0.0000    0.0000 C   0  0  0  0  0  0  0  0  0  0  0  0
    0.8250    0.8250    0.0000 F   0  0  0  0  0  0  0  0  0  0  0  0
    1.6500   -0.0000    0.0000 F   0  0  0  0  0  0  0  0  0  0  0  0
    0.0000    0.0000    0.0000 F   0  0  0  0  0  0  0  0  0  0  0  0
  1  2  1  0  0  0  0
  2  3  1  0  0  0  0
  3  4  1  0  0  0  0
  4  5  1  0  0  0  0
  4  6  1  0  0  0  0
  4  7  1  0  0  0  0
  7  8  1  0  0  0  0
  7  9  1  0  0  0  0
  7 10  1  0  0  0  0
 10 11  1  0  0  0  0
 10 12  1  0  0  0  0
 10 13  1  0  0  0  0
 13 14  1  0  0  0  0
 13 15  1  0  0  0  0
 13 16  1  0  0  0  0
 16 17  1  0  0  0  0
 16 18  1  0  0  0  0
 16 19  1  0  0  0  0
 19 20  1  0  0  0  0
 19 21  1  0  0  0  0
 19 22  1  0  0  0  0
 22 23  1  0  0  0  0
 22 24  1  0  0  0  0
 22 25  1  0  0  0  0
 25 26  1  0  0  0  0
 25 27  1  0  0  0  0
 25 28  1  0  0  0  0
M  END
> <activity>
45.8

> <InChiKey>
JJUBFBTUBACDHW-UHFFFAOYSA-N

$$$$

  Mrv2220 08292413132D          

 32 35  0  0  0  0            999 V2000
    2.1434   -1.2375    0.0000 C   0  0  0  0  0  0  0  0  0  0  0  0
    2.8579   -1.6500    0.0000 O   0  0  0  0  0  0  0  0  0  0  0  0
    2.8579   -2.4750    0.0000 N   0  0  0  0  0  0  0  0  0  0  0  0
    3.5724   -2.8875    0.0000 C   0  0  0  0  0  0  0  0  0  0  0  0
    3.5724   -3.7125    0.0000 C   0  0  0  0  0  0  0  0  0  0  0  0
    4.2868   -4.1250    0.0000 N   0  0  0  0  0  0  0  0  0  0  0  0
    4.2868   -4.9500    0.0000 O   0  0  0  0  0  0  0  0  0  0  0  0
    3.5724   -5.3625    0.0000 C   0  0  0  0  0  0  0  0  0  0  0  0
    2.8579   -4.9500    0.0000 C   0  0  0  0  0  0  0  0  0  0  0  0
    2.8579   -4.1250    0.0000 O   0  0  0  0  0  0  0  0  0  0  0  0
    4.2868   -2.4750    0.0000 C   0  0  0  0  0  0  0  0  0  0  0  0
    4.2868   -1.6500    0.0000 C   0  0  0  0  0  0  0  0  0  0  0  0
    5.0013   -1.2375    0.0000 C   0  0  0  0  0  0  0  0  0  0  0  0
    5.7158   -1.6500    0.0000 C   0  0  0  0  0  0  0  0  0  0  0  0
    5.7158   -2.4750    0.0000 C   0  0  0  0  0  0  0  0  0  0  0  0
    5.0013   -2.8875    0.0000 C   0  0  0  0  0  0  0  0  0  0  0  0
    5.0013   -3.7125    0.0000 O   0  0  0  0  0  0  0  0  0  0  0  0
    5.7158   -4.1250    0.0000 C   0  0  0  0  0  0  0  0  0  0  0  0
    5.7158   -4.9500    0.0000 N   0  0  0  0  0  0  0  0  0  0  0  0
    6.4302   -5.3625    0.0000 C   0  0  0  0  0  0  0  0  0  0  0  0
    7.1447   -4.9500    0.0000 N   0  0  0  0  0  0  0  0  0  0  0  0
    7.1447   -4.1250    0.0000 C   0  0  0  0  0  0  0  0  0  0  0  0
    7.8592   -3.7125    0.0000 O   0  0  0  0  0  0  0  0  0  0  0  0
    8.5737   -4.1250    0.0000 C   0  0  0  0  0  0  0  0  0  0  0  0
    9.2881   -3.7125    0.0000 C   0  0  0  0  0  0  0  0  0  0  0  0
   10.0026   -4.1250    0.0000 C   0  0  0  0  0  0  0  0  0  0  0  0
   10.0026   -4.9500    0.0000 C   0  0  0  0  0  0  0  0  0  0  0  0
    9.2881   -5.3625    0.0000 C   0  0  0  0  0  0  0  0  0  0  0  0
    8.5737   -4.9500    0.0000 C   0  0  0  0  0  0  0  0  0  0  0  0
    7.8592   -5.3625    0.0000 Cl  0  0  0  0  0  0  0  0  0  0  0  0
    6.4302   -3.7125    0.0000 C   0  0  0  0  0  0  0  0  0  0  0  0
    6.4302   -2.8875    0.0000 F   0  0  0  0  0  0  0  0  0  0  0  0
  1  2  1  0  0  0  0
  3  2  1  4  0  0  0
  3  4  2  0  0  0  0
  4  5  1  0  0  0  0
  5  6  2  0  0  0  0
  6  7  1  0  0  0  0
  7  8  1  0  0  0  0
  8  9  1  0  0  0  0
  9 10  1  0  0  0  0
  5 10  1  0  0  0  0
  4 11  1  0  0  0  0
 11 12  4  0  0  0  0
 12 13  4  0  0  0  0
 13 14  4  0  0  0  0
 14 15  4  0  0  0  0
 15 16  4  0  0  0  0
 11 16  4  0  0  0  0
 16 17  1  0  0  0  0
 17 18  1  0  0  0  0
 18 19  4  0  0  0  0
 19 20  4  0  0  0  0
 20 21  4  0  0  0  0
 21 22  4  0  0  0  0
 22 23  1  0  0  0  0
 23 24  1  0  0  0  0
 24 25  4  0  0  0  0
 25 26  4  0  0  0  0
 26 27  4  0  0  0  0
 27 28  4  0  0  0  0
 28 29  4  0  0  0  0
 24 29  4  0  0  0  0
 29 30  1  0  0  0  0
 22 31  4  0  0  0  0
 18 31  4  0  0  0  0
 31 32  1  0  0  0  0
M  END
> <activity>
88.2

> <InChiKey>
UFEODZBUAFNAEU-UHFFFAOYSA-N

$$$$

  Mrv2220 08292413132D          

 15 15  0  0  0  0            999 V2000
    0.7145    2.0625    0.0000 N   0  0  0  0  0  0  0  0  0  0  0  0
    0.7145    1.2375    0.0000 C   0  0  0  0  0  0  0  0  0  0  0  0
    1.4289    0.8250    0.0000 C   0  0  0  0  0  0  0  0  0  0  0  0
    2.1434    1.2375    0.0000 Cl  0  0  0  0  0  0  0  0  0  0  0  0
    1.4289   -0.0000    0.0000 C   0  0  0  0  0  0  0  0  0  0  0  0
    2.1434   -0.4125    0.0000 F   0  0  0  0  0  0  0  0  0  0  0  0
    0.7145   -0.4125    0.0000 N   0  0  0  0  0  0  0  0  0  0  0  0
    0.0000    0.0000    0.0000 C   0  0  0  0  0  0  0  0  0  0  0  0
   -0.7145   -0.4125    0.0000 O   0  0  0  0  0  0  0  0  0  0  0  0
   -0.7145   -1.2375    0.0000 C   0  0  0  0  0  0  0  0  0  0  0  0
   -1.4289   -1.6500    0.0000 C   0  0  0  0  0  0  0  0  0  0  0  0
   -1.4289   -2.4750    0.0000 O   0  0  0  0  0  0  0  0  0  0  0  0
   -2.1434   -1.2375    0.0000 O   0  0  0  0  0  0  0  0  0  0  0  0
    0.0000    0.8250    0.0000 C   0  0  0  0  0  0  0  0  0  0  0  0
   -0.7145    1.2375    0.0000 Cl  0  0  0  0  0  0  0  0  0  0  0  0
  1  2  1  0  0  0  0
  2  3  4  0  0  0  0
  3  4  1  0  0  0  0
  3  5  4  0  0  0  0
  5  6  1  0  0  0  0
  5  7  4  0  0  0  0
  7  8  4  0  0  0  0
  8  9  1  0  0  0  0
  9 10  1  0  0  0  0
 10 11  1  0  0  0  0
 11 12  2  0  0  0  0
 11 13  1  0  0  0  0
  8 14  4  0  0  0  0
  2 14  4  0  0  0  0
 14 15  1  0  0  0  0
M  END
> <activity>
84.5

> <InChiKey>
MEFQWPUMEMWTJP-UHFFFAOYSA-N

$$$$

  Mrv2220 08292413132D          

 23 23  0  0  0  0            999 V2000
    2.1434   -6.1875    0.0000 C   0  0  0  0  0  0  0  0  0  0  0  0
    2.8579   -6.6000    0.0000 C   0  0  0  0  0  0  0  0  0  0  0  0
    3.5724   -6.1875    0.0000 C   0  0  0  0  0  0  0  0  0  0  0  0
    4.2868   -6.6000    0.0000 C   0  0  0  0  0  0  0  0  0  0  0  0
    5.0013   -6.1875    0.0000 C   0  0  0  0  0  0  0  0  0  0  0  0
    5.7158   -6.6000    0.0000 C   0  0  0  0  0  0  0  0  0  0  0  0
    6.4302   -6.1875    0.0000 C   0  0  0  0  0  0  0  0  0  0  0  0
    6.4302   -5.3625    0.0000 C   0  0  0  0  0  0  0  0  0  0  0  0
    7.1447   -6.6000    0.0000 O   0  0  0  0  0  0  0  0  0  0  0  0
    7.8592   -6.1875    0.0000 C   0  0  0  0  0  0  0  0  0  0  0  0
    7.8592   -5.3625    0.0000 O   0  0  0  0  0  0  0  0  0  0  0  0
    8.5737   -6.6000    0.0000 C   0  0  0  0  0  0  0  0  0  0  0  0
    9.2881   -6.1875    0.0000 O   0  0  0  0  0  0  0  0  0  0  0  0
   10.0026   -6.6000    0.0000 C   0  0  0  0  0  0  0  0  0  0  0  0
   10.7171   -6.1875    0.0000 N   0  0  0  0  0  0  0  0  0  0  0  0
   11.4315   -6.6000    0.0000 C   0  0  0  0  0  0  0  0  0  0  0  0
   12.1460   -6.1875    0.0000 F   0  0  0  0  0  0  0  0  0  0  0  0
   11.4315   -7.4250    0.0000 C   0  0  0  0  0  0  0  0  0  0  0  0
   12.1460   -7.8375    0.0000 Cl  0  0  0  0  0  0  0  0  0  0  0  0
   10.7171   -7.8375    0.0000 C   0  0  0  0  0  0  0  0  0  0  0  0
   10.7171   -8.6625    0.0000 N   0  0  0  0  0  0  0  0  0  0  0  0
   10.0026   -7.4250    0.0000 C   0  0  0  0  0  0  0  0  0  0  0  0
    9.2881   -7.8375    0.0000 Cl  0  0  0  0  0  0  0  0  0  0  0  0
  1  2  1  0  0  0  0
  2  3  1  0  0  0  0
  3  4  1  0  0  0  0
  4  5  1  0  0  0  0
  5  6  1  0  0  0  0
  6  7  1  0  0  0  0
  7  8  1  0  0  0  0
  7  9  1  0  0  0  0
  9 10  1  0  0  0  0
 10 11  2  0  0  0  0
 10 12  1  0  0  0  0
 12 13  1  0  0  0  0
 13 14  1  0  0  0  0
 14 15  4  0  0  0  0
 15 16  4  0  0  0  0
 16 17  1  0  0  0  0
 16 18  4  0  0  0  0
 18 19  1  0  0  0  0
 18 20  4  0  0  0  0
 20 21  1  0  0  0  0
 20 22  4  0  0  0  0
 14 22  4  0  0  0  0
 22 23  1  0  0  0  0
M  END
> <activity>
84.2

> <InChiKey>
OLZQTUCTGLHFTQ-UHFFFAOYSA-N

$$$$

  Mrv2220 08292413132D          

 22 24  0  0  0  0            999 V2000
    1.1759   -1.3349    0.0000 C   0  0  0  0  0  0  0  0  0  0  0  0
    1.5884   -0.6204    0.0000 Si  0  0  0  0  0  0  0  0  0  0  0  0
    2.3029   -1.0329    0.0000 C   0  0  0  0  0  0  0  0  0  0  0  0
    2.3029   -1.8579    0.0000 N   0  0  0  0  0  0  0  0  0  0  0  0
    1.6354   -2.3429    0.0000 C   0  0  0  0  0  0  0  0  0  0  0  0
    1.8904   -3.1275    0.0000 N   0  0  0  0  0  0  0  0  0  0  0  0
    2.7154   -3.1275    0.0000 C   0  0  0  0  0  0  0  0  0  0  0  0
    2.9703   -2.3429    0.0000 N   0  0  0  0  0  0  0  0  0  0  0  0
    0.8739   -0.2079    0.0000 C   0  0  0  0  0  0  0  0  0  0  0  0
    0.1595   -0.6204    0.0000 C   0  0  0  0  0  0  0  0  0  0  0  0
   -0.5550   -0.2079    0.0000 C   0  0  0  0  0  0  0  0  0  0  0  0
   -0.5550    0.6171    0.0000 C   0  0  0  0  0  0  0  0  0  0  0  0
   -1.2695    1.0296    0.0000 F   0  0  0  0  0  0  0  0  0  0  0  0
    0.1595    1.0296    0.0000 C   0  0  0  0  0  0  0  0  0  0  0  0
    0.8739    0.6171    0.0000 C   0  0  0  0  0  0  0  0  0  0  0  0
    2.0009    0.0940    0.0000 C   0  0  0  0  0  0  0  0  0  0  0  0
    1.5884    0.8085    0.0000 C   0  0  0  0  0  0  0  0  0  0  0  0
    2.0009    1.5230    0.0000 C   0  0  0  0  0  0  0  0  0  0  0  0
    2.8259    1.5230    0.0000 C   0  0  0  0  0  0  0  0  0  0  0  0
    3.2384    2.2374    0.0000 F   0  0  0  0  0  0  0  0  0  0  0  0
    3.2384    0.8085    0.0000 C   0  0  0  0  0  0  0  0  0  0  0  0
    2.8259    0.0940    0.0000 C   0  0  0  0  0  0  0  0  0  0  0  0
  1  2  1  0  0  0  0
  2  3  1  0  0  0  0
  3  4  1  0  0  0  0
  4  5  4  0  0  0  0
  5  6  4  0  0  0  0
  6  7  4  0  0  0  0
  7  8  4  0  0  0  0
  4  8  4  0  0  0  0
  2  9  1  0  0  0  0
  9 10  4  0  0  0  0
 10 11  4  0  0  0  0
 11 12  4  0  0  0  0
 12 13  1  0  0  0  0
 12 14  4  0  0  0  0
 14 15  4  0  0  0  0
  9 15  4  0  0  0  0
  2 16  1  0  0  0  0
 16 17  4  0  0  0  0
 17 18  4  0  0  0  0
 18 19  4  0  0  0  0
 19 20  1  0  0  0  0
 19 21  4  0  0  0  0
 21 22  4  0  0  0  0
 16 22  4  0  0  0  0
M  END
> <activity>
52.2

> <InChiKey>
FQKUGOMFVDPBIZ-UHFFFAOYSA-N

$$$$

  Mrv2220 08292413132D          

 19 19  0  0  0  0            999 V2000
   -0.7145    3.7125    0.0000 C   0  0  0  0  0  0  0  0  0  0  0  0
    0.0000    3.3000    0.0000 C   0  0  0  0  0  0  0  0  0  0  0  0
    0.7145    3.7125    0.0000 C   0  0  0  0  0  0  0  0  0  0  0  0
    0.0000    2.4750    0.0000 C   0  0  0  0  0  0  0  0  0  0  0  0
   -0.7145    2.0625    0.0000 O   0  0  0  0  0  0  0  0  0  0  0  0
    0.7145    2.0625    0.0000 N   0  0  0  0  0  0  0  0  0  0  0  0
    0.7145    1.2375    0.0000 C   0  0  0  0  0  0  0  0  0  0  0  0
    1.4289    0.8250    0.0000 C   0  0  0  0  0  0  0  0  0  0  0  0
    1.4289   -0.0000    0.0000 C   0  0  0  0  0  0  0  0  0  0  0  0
    0.7145   -0.4125    0.0000 C   0  0  0  0  0  0  0  0  0  0  0  0
    0.7145   -1.2375    0.0000 N   0  3  0  0  0  0  0  0  0  0  0  0
    1.4289   -1.6500    0.0000 O   0  0  0  0  0  0  0  0  0  0  0  0
   -0.0000   -1.6500    0.0000 O   0  5  0  0  0  0  0  0  0  0  0  0
    0.0000    0.0000    0.0000 C   0  0  0  0  0  0  0  0  0  0  0  0
   -0.7145   -0.4125    0.0000 C   0  0  0  0  0  0  0  0  0  0  0  0
   -1.4289   -0.8250    0.0000 F   0  0  0  0  0  0  0  0  0  0  0  0
   -1.1270    0.3020    0.0000 F   0  0  0  0  0  0  0  0  0  0  0  0
   -0.3020   -1.1270    0.0000 F   0  0  0  0  0  0  0  0  0  0  0  0
    0.0000    0.8250    0.0000 C   0  0  0  0  0  0  0  0  0  0  0  0
  1  2  1  0  0  0  0
  2  3  1  0  0  0  0
  2  4  1  0  0  0  0
  4  5  2  0  0  0  0
  4  6  1  0  0  0  0
  6  7  1  0  0  0  0
  7  8  4  0  0  0  0
  8  9  4  0  0  0  0
  9 10  4  0  0  0  0
 10 11  1  0  0  0  0
 11 12  2  0  0  0  0
 11 13  1  0  0  0  0
 10 14  4  0  0  0  0
 14 15  1  0  0  0  0
 15 16  1  0  0  0  0
 15 17  1  0  0  0  0
 15 18  1  0  0  0  0
 14 19  4  0  0  0  0
  7 19  4  0  0  0  0
M  CHG  2  11   1  13  -1
M  END
> <activity>
30.4

> <InChiKey>
MKXKFYHWDHIYRV-UHFFFAOYSA-N

$$$$

  Mrv2220 08292413132D          

 23 24  0  0  0  0            999 V2000
    2.1434   -0.4125    0.0000 C   0  0  0  0  0  0  0  0  0  0  0  0
    2.1434   -1.2375    0.0000 C   0  0  0  0  0  0  0  0  0  0  0  0
    2.8579   -1.6500    0.0000 C   0  0  0  0  0  0  0  0  0  0  0  0
    1.4289   -1.6500    0.0000 O   0  0  0  0  0  0  0  0  0  0  0  0
    1.4289   -2.4750    0.0000 C   0  0  0  0  0  0  0  0  0  0  0  0
    2.1434   -2.8875    0.0000 C   0  0  0  0  0  0  0  0  0  0  0  0
    2.1434   -3.7125    0.0000 C   0  0  0  0  0  0  0  0  0  0  0  0
    1.4289   -4.1250    0.0000 C   0  0  0  0  0  0  0  0  0  0  0  0
    0.7145   -3.7125    0.0000 C   0  0  0  0  0  0  0  0  0  0  0  0
    0.0000   -4.1250    0.0000 N   0  0  0  0  0  0  0  0  0  0  0  0
    0.0000   -4.9500    0.0000 C   0  0  0  0  0  0  0  0  0  0  0  0
    0.7145   -5.3625    0.0000 O   0  0  0  0  0  0  0  0  0  0  0  0
   -0.7145   -5.3625    0.0000 C   0  0  0  0  0  0  0  0  0  0  0  0
   -0.7145   -6.1875    0.0000 C   0  0  0  0  0  0  0  0  0  0  0  0
   -1.4289   -6.6000    0.0000 C   0  0  0  0  0  0  0  0  0  0  0  0
   -2.1434   -6.1875    0.0000 C   0  0  0  0  0  0  0  0  0  0  0  0
   -2.1434   -5.3625    0.0000 C   0  0  0  0  0  0  0  0  0  0  0  0
   -1.4289   -4.9500    0.0000 C   0  0  0  0  0  0  0  0  0  0  0  0
   -1.4289   -4.1250    0.0000 C   0  0  0  0  0  0  0  0  0  0  0  0
   -1.4289   -3.3000    0.0000 F   0  0  0  0  0  0  0  0  0  0  0  0
   -0.6039   -4.1250    0.0000 F   0  0  0  0  0  0  0  0  0  0  0  0
   -2.2539   -4.1250    0.0000 F   0  0  0  0  0  0  0  0  0  0  0  0
    0.7145   -2.8875    0.0000 C   0  0  0  0  0  0  0  0  0  0  0  0
  1  2  1  0  0  0  0
  2  3  1  0  0  0  0
  2  4  1  0  0  0  0
  4  5  1  0  0  0  0
  5  6  4  0  0  0  0
  6  7  4  0  0  0  0
  7  8  4  0  0  0  0
  8  9  4  0  0  0  0
  9 10  1  0  0  0  0
 10 11  1  0  0  0  0
 11 12  2  0  0  0  0
 11 13  1  0  0  0  0
 13 14  4  0  0  0  0
 14 15  4  0  0  0  0
 15 16  4  0  0  0  0
 16 17  4  0  0  0  0
 17 18  4  0  0  0  0
 13 18  4  0  0  0  0
 18 19  1  0  0  0  0
 19 20  1  0  0  0  0
 19 21  1  0  0  0  0
 19 22  1  0  0  0  0
  9 23  4  0  0  0  0
  5 23  4  0  0  0  0
M  END
> <activity>
75.6

> <InChiKey>
PTCGDEVVHUXTMP-UHFFFAOYSA-N

$$$$

  Mrv2220 08292413132D          

 28 29  0  0  0  0            999 V2000
    1.4289    1.6500    0.0000 C   0  0  0  0  0  0  0  0  0  0  0  0
    1.4289    0.8250    0.0000 S   0  0  0  0  0  0  0  0  0  0  0  0
    0.6039    0.8250    0.0000 O   0  0  0  0  0  0  0  0  0  0  0  0
    2.2539    0.8250    0.0000 O   0  0  0  0  0  0  0  0  0  0  0  0
    1.4289    0.0000    0.0000 N   0  0  0  0  0  0  0  0  0  0  0  0
    2.1434   -0.4125    0.0000 C   0  0  0  0  0  0  0  0  0  0  0  0
    2.8579    0.0000    0.0000 O   0  0  0  0  0  0  0  0  0  0  0  0
    2.1434   -1.2375    0.0000 C   0  0  0  0  0  0  0  0  0  0  0  0
    2.8579   -1.6500    0.0000 C   0  0  0  0  0  0  0  0  0  0  0  0
    2.8579   -2.4750    0.0000 C   0  0  0  0  0  0  0  0  0  0  0  0
    3.5724   -2.8875    0.0000 O   0  0  0  0  0  0  0  0  0  0  0  0
    3.5724   -3.7125    0.0000 C   0  0  0  0  0  0  0  0  0  0  0  0
    4.2868   -4.1250    0.0000 C   0  0  0  0  0  0  0  0  0  0  0  0
    4.2868   -4.9500    0.0000 C   0  0  0  0  0  0  0  0  0  0  0  0
    3.5724   -5.3625    0.0000 C   0  0  0  0  0  0  0  0  0  0  0  0
    3.5724   -6.1875    0.0000 C   0  0  0  0  0  0  0  0  0  0  0  0
    3.5724   -7.0125    0.0000 F   0  0  0  0  0  0  0  0  0  0  0  0
    2.7474   -6.1875    0.0000 F   0  0  0  0  0  0  0  0  0  0  0  0
    4.3974   -6.1875    0.0000 F   0  0  0  0  0  0  0  0  0  0  0  0
    2.8579   -4.9500    0.0000 C   0  0  0  0  0  0  0  0  0  0  0  0
    2.8579   -4.1250    0.0000 C   0  0  0  0  0  0  0  0  0  0  0  0
    2.1434   -3.7125    0.0000 Cl  0  0  0  0  0  0  0  0  0  0  0  0
    2.1434   -2.8875    0.0000 C   0  0  0  0  0  0  0  0  0  0  0  0
    1.4289   -2.4750    0.0000 C   0  0  0  0  0  0  0  0  0  0  0  0
    1.4289   -1.6500    0.0000 C   0  0  0  0  0  0  0  0  0  0  0  0
    0.7145   -1.2375    0.0000 N   0  3  0  0  0  0  0  0  0  0  0  0
    0.7145   -0.4125    0.0000 O   0  0  0  0  0  0  0  0  0  0  0  0
    0.0000   -1.6500    0.0000 O   0  5  0  0  0  0  0  0  0  0  0  0
  1  2  1  0  0  0  0
  2  3  2  0  0  0  0
  2  4  2  0  0  0  0
  2  5  1  0  0  0  0
  5  6  1  0  0  0  0
  6  7  2  0  0  0  0
  6  8  1  0  0  0  0
  8  9  4  0  0  0  0
  9 10  4  0  0  0  0
 10 11  1  0  0  0  0
 11 12  1  0  0  0  0
 12 13  4  0  0  0  0
 13 14  4  0  0  0  0
 14 15  4  0  0  0  0
 15 16  1  0  0  0  0
 16 17  1  0  0  0  0
 16 18  1  0  0  0  0
 16 19  1  0  0  0  0
 15 20  4  0  0  0  0
 20 21  4  0  0  0  0
 12 21  4  0  0  0  0
 21 22  1  0  0  0  0
 10 23  4  0  0  0  0
 23 24  4  0  0  0  0
 24 25  4  0  0  0  0
  8 25  4  0  0  0  0
 25 26  1  0  0  0  0
 26 27  2  0  0  0  0
 26 28  1  0  0  0  0
M  CHG  2  26   1  28  -1
M  END
> <activity>
97.6

> <InChiKey>
BGZZWXTVIYUUEY-UHFFFAOYSA-N

$$$$

  Mrv2220 08292413132D          

 17 18  0  0  0  0            999 V2000
    4.2868   -1.6500    0.0000 O   0  0  0  0  0  0  0  0  0  0  0  0
    3.5724   -1.2375    0.0000 C   0  0  0  0  0  0  0  0  0  0  0  0
    2.8579   -1.6500    0.0000 N   0  0  0  0  0  0  0  0  0  0  0  0
    2.8579   -2.4750    0.0000 C   0  0  0  0  0  0  0  0  0  0  0  0
    3.5724   -2.8875    0.0000 C   0  0  0  0  0  0  0  0  0  0  0  0
    3.5724   -3.7125    0.0000 C   0  0  0  0  0  0  0  0  0  0  0  0
    2.8579   -4.1250    0.0000 C   0  0  0  0  0  0  0  0  0  0  0  0
    2.1434   -3.7125    0.0000 C   0  0  0  0  0  0  0  0  0  0  0  0
    2.1434   -2.8875    0.0000 C   0  0  0  0  0  0  0  0  0  0  0  0
    3.5724   -0.4125    0.0000 N   0  0  0  0  0  0  0  0  0  0  0  0
    4.2868    0.0000    0.0000 C   0  0  0  0  0  0  0  0  0  0  0  0
    4.2868    0.8250    0.0000 C   0  0  0  0  0  0  0  0  0  0  0  0
    5.0013    1.2375    0.0000 C   0  0  0  0  0  0  0  0  0  0  0  0
    5.7158    0.8250    0.0000 N   0  0  0  0  0  0  0  0  0  0  0  0
    5.7158   -0.0000    0.0000 C   0  0  0  0  0  0  0  0  0  0  0  0
    6.4302   -0.4125    0.0000 Cl  0  0  0  0  0  0  0  0  0  0  0  0
    5.0013   -0.4125    0.0000 C   0  0  0  0  0  0  0  0  0  0  0  0
  1  2  2  0  0  0  0
  2  3  1  0  0  0  0
  3  4  1  0  0  0  0
  4  5  4  0  0  0  0
  5  6  4  0  0  0  0
  6  7  4  0  0  0  0
  7  8  4  0  0  0  0
  8  9  4  0  0  0  0
  4  9  4  0  0  0  0
  2 10  1  0  0  0  0
 10 11  1  0  0  0  0
 11 12  4  0  0  0  0
 12 13  4  0  0  0  0
 13 14  4  0  0  0  0
 14 15  4  0  0  0  0
 15 16  1  0  0  0  0
 15 17  4  0  0  0  0
 11 17  4  0  0  0  0
M  END
> <activity>
54.6

> <InChiKey>
GPXLRLUVLMHHIK-UHFFFAOYSA-N

$$$$

  Mrv2220 08292413132D          

  2  1  0  0  0  0            999 V2000
    0.8250    0.0000    0.0000 C   0  0  0  0  0  0  0  0  0  0  0  0
    0.0000    0.0000    0.0000 O   0  0  0  0  0  0  0  0  0  0  0  0
  1  2  2  0  0  0  0
M  END
> <activity>
14.6

> <InChiKey>
WSFSSNUMVMOOMR-UHFFFAOYSA-N

$$$$

  Mrv2220 08292413132D          

  3  2  0  0  0  0            999 V2000
    1.2375   -0.7145    0.0000 N   0  0  0  0  0  0  0  0  0  0  0  0
    1.9520   -1.1270    0.0000 C   0  0  0  0  0  0  0  0  0  0  0  0
    2.6664   -0.7145    0.0000 O   0  0  0  0  0  0  0  0  0  0  0  0
  1  2  1  0  0  0  0
  2  3  2  0  0  0  0
M  END
> <activity>
2.3

> <InChiKey>
ZHNUHDYFZUAESO-UHFFFAOYSA-N

$$$$

  Mrv2220 08292413132D          

 25 27  0  0  0  0            999 V2000
   -0.1712   -0.6979    0.0000 C   0  0  0  0  0  0  0  0  0  0  0  0
    0.6538   -0.6979    0.0000 C   0  0  0  0  0  0  0  0  0  0  0  0
    1.1387   -0.0305    0.0000 O   0  0  0  0  0  0  0  0  0  0  0  0
    1.9233   -0.2854    0.0000 C   0  0  0  0  0  0  0  0  0  0  0  0
    2.6378    0.1271    0.0000 C   0  0  0  0  0  0  0  0  0  0  0  0
    2.6378    0.9521    0.0000 N   0  0  0  0  0  0  0  0  0  0  0  0
    3.3523    1.3646    0.0000 C   0  0  0  0  0  0  0  0  0  0  0  0
    4.0668    0.9521    0.0000 O   0  0  0  0  0  0  0  0  0  0  0  0
    3.3523    2.1896    0.0000 C   0  0  0  0  0  0  0  0  0  0  0  0
    2.6378    2.6021    0.0000 C   0  0  0  0  0  0  0  0  0  0  0  0
    1.9233    2.1896    0.0000 Cl  0  0  0  0  0  0  0  0  0  0  0  0
    2.6378    3.4271    0.0000 C   0  0  0  0  0  0  0  0  0  0  0  0
    3.3523    3.8396    0.0000 C   0  0  0  0  0  0  0  0  0  0  0  0
    4.0668    3.4271    0.0000 C   0  0  0  0  0  0  0  0  0  0  0  0
    4.0668    2.6021    0.0000 C   0  0  0  0  0  0  0  0  0  0  0  0
    4.7812    2.1896    0.0000 Cl  0  0  0  0  0  0  0  0  0  0  0  0
    3.3523   -0.2854    0.0000 C   0  0  0  0  0  0  0  0  0  0  0  0
    3.3523   -1.1104    0.0000 C   0  0  0  0  0  0  0  0  0  0  0  0
    2.6378   -1.5229    0.0000 C   0  0  0  0  0  0  0  0  0  0  0  0
    1.9233   -1.1104    0.0000 C   0  0  0  0  0  0  0  0  0  0  0  0
    1.1387   -1.3654    0.0000 C   0  0  0  0  0  0  0  0  0  0  0  0
    0.8838   -2.1500    0.0000 C   0  0  0  0  0  0  0  0  0  0  0  0
    0.6288   -2.9346    0.0000 C   0  0  0  0  0  0  0  0  0  0  0  0
    0.0992   -1.8951    0.0000 C   0  0  0  0  0  0  0  0  0  0  0  0
    1.6684   -2.4049    0.0000 O   0  0  0  0  0  0  0  0  0  0  0  0
  1  2  1  0  0  0  0
  2  3  4  0  0  0  0
  3  4  4  0  0  0  0
  4  5  4  0  0  0  0
  5  6  1  0  0  0  0
  6  7  1  0  0  0  0
  7  8  2  0  0  0  0
  7  9  1  0  0  0  0
  9 10  4  0  0  0  0
 10 11  1  0  0  0  0
 10 12  4  0  0  0  0
 12 13  4  0  0  0  0
 13 14  4  0  0  0  0
 14 15  4  0  0  0  0
  9 15  4  0  0  0  0
 15 16  1  0  0  0  0
  5 17  4  0  0  0  0
 17 18  4  0  0  0  0
 18 19  4  0  0  0  0
 19 20  4  0  0  0  0
  4 20  4  0  0  0  0
 20 21  4  0  0  0  0
  2 21  4  0  0  0  0
 21 22  1  0  0  0  0
 22 23  1  0  0  0  0
 22 24  1  0  0  0  0
 22 25  1  0  0  0  0
M  END
> <activity>
102.1

> <InChiKey>
GCAOVMKRBUCSET-UHFFFAOYSA-N

$$$$

  Mrv2220 08292413132D          

 15 15  0  0  0  0            999 V2000
    0.0000   -2.4750    0.0000 C   0  0  0  0  0  0  0  0  0  0  0  0
    0.7145   -2.8875    0.0000 C   0  0  0  0  0  0  0  0  0  0  0  0
    1.4289   -2.4750    0.0000 C   0  0  0  0  0  0  0  0  0  0  0  0
    2.1434   -2.8875    0.0000 O   0  0  0  0  0  0  0  0  0  0  0  0
    2.8579   -2.4750    0.0000 C   0  0  0  0  0  0  0  0  0  0  0  0
    2.8579   -1.6500    0.0000 O   0  0  0  0  0  0  0  0  0  0  0  0
    3.5724   -2.8875    0.0000 C   0  0  0  0  0  0  0  0  0  0  0  0
    4.2868   -2.4750    0.0000 C   0  0  0  0  0  0  0  0  0  0  0  0
    5.0013   -2.8875    0.0000 C   0  0  0  0  0  0  0  0  0  0  0  0
    5.7158   -2.4750    0.0000 O   0  0  0  0  0  0  0  0  0  0  0  0
    5.0013   -3.7125    0.0000 C   0  0  0  0  0  0  0  0  0  0  0  0
    5.7158   -4.1250    0.0000 O   0  0  0  0  0  0  0  0  0  0  0  0
    4.2868   -4.1250    0.0000 C   0  0  0  0  0  0  0  0  0  0  0  0
    4.2868   -4.9500    0.0000 O   0  0  0  0  0  0  0  0  0  0  0  0
    3.5724   -3.7125    0.0000 C   0  0  0  0  0  0  0  0  0  0  0  0
  1  2  1  0  0  0  0
  2  3  1  0  0  0  0
  3  4  1  0  0  0  0
  4  5  1  0  0  0  0
  5  6  2  0  0  0  0
  5  7  1  0  0  0  0
  7  8  4  0  0  0  0
  8  9  4  0  0  0  0
  9 10  1  0  0  0  0
  9 11  4  0  0  0  0
 11 12  1  0  0  0  0
 11 13  4  0  0  0  0
 13 14  1  0  0  0  0
 13 15  4  0  0  0  0
  7 15  4  0  0  0  0
M  END
> <activity>
104.8

> <InChiKey>
ZTHYODDOHIVTJV-UHFFFAOYSA-N

$$$$

  Mrv2220 08292413132D          

  6  6  0  0  0  0            999 V2000
    0.5678    1.9393    0.0000 O   0  0  0  0  0  0  0  0  0  0  0  0
    0.5678    1.1143    0.0000 C   0  0  0  0  0  0  0  0  0  0  0  0
    1.2352    0.6294    0.0000 C   0  0  0  0  0  0  0  0  0  0  0  0
    0.9803   -0.1553    0.0000 C   0  0  0  0  0  0  0  0  0  0  0  0
    0.1553   -0.1553    0.0000 C   0  0  0  0  0  0  0  0  0  0  0  0
   -0.0997    0.6294    0.0000 O   0  0  0  0  0  0  0  0  0  0  0  0
  1  2  2  0  0  0  0
  2  3  1  0  0  0  0
  3  4  1  0  0  0  0
  4  5  1  0  0  0  0
  5  6  1  0  0  0  0
  2  6  1  0  0  0  0
M  END
> <activity>
11.3

> <InChiKey>
YEJRWHAVMIAJKC-UHFFFAOYSA-N

$$$$

  Mrv2220 08292413132D          

  8  8  0  0  0  0            999 V2000
    1.2822    2.3518    0.0000 C   0  0  0  0  0  0  0  0  0  0  0  0
    0.5678    1.9393    0.0000 C   0  0  0  0  0  0  0  0  0  0  0  0
    0.5678    1.1143    0.0000 C   0  0  0  0  0  0  0  0  0  0  0  0
    1.2352    0.6294    0.0000 C   0  0  0  0  0  0  0  0  0  0  0  0
    0.9803   -0.1553    0.0000 C   0  0  0  0  0  0  0  0  0  0  0  0
    0.1553   -0.1553    0.0000 C   0  0  0  0  0  0  0  0  0  0  0  0
   -0.3297   -0.8227    0.0000 O   0  0  0  0  0  0  0  0  0  0  0  0
   -0.0997    0.6294    0.0000 O   0  0  0  0  0  0  0  0  0  0  0  0
  1  2  1  0  0  0  0
  2  3  1  0  0  0  0
  3  4  1  0  0  0  0
  4  5  1  0  0  0  0
  5  6  1  0  0  0  0
  6  7  2  0  0  0  0
  6  8  1  0  0  0  0
  3  8  1  0  0  0  0
M  END
> <activity>
54.0

> <InChiKey>
JBFHTYHTHYHCDJ-UHFFFAOYSA-N

$$$$

  Mrv2220 08292413132D          

  9  9  0  0  0  0            999 V2000
    1.2822    3.1768    0.0000 C   0  0  0  0  0  0  0  0  0  0  0  0
    1.2822    2.3518    0.0000 C   0  0  0  0  0  0  0  0  0  0  0  0
    0.5678    1.9393    0.0000 C   0  0  0  0  0  0  0  0  0  0  0  0
    0.5678    1.1143    0.0000 C   0  0  0  0  0  0  0  0  0  0  0  0
    1.2352    0.6294    0.0000 C   0  0  0  0  0  0  0  0  0  0  0  0
    0.9803   -0.1553    0.0000 C   0  0  0  0  0  0  0  0  0  0  0  0
    0.1553   -0.1553    0.0000 C   0  0  0  0  0  0  0  0  0  0  0  0
   -0.3297   -0.8227    0.0000 O   0  0  0  0  0  0  0  0  0  0  0  0
   -0.0997    0.6294    0.0000 O   0  0  0  0  0  0  0  0  0  0  0  0
  1  2  1  0  0  0  0
  2  3  1  0  0  0  0
  3  4  1  0  0  0  0
  4  5  1  0  0  0  0
  5  6  1  0  0  0  0
  6  7  1  0  0  0  0
  7  8  2  0  0  0  0
  7  9  1  0  0  0  0
  4  9  1  0  0  0  0
M  END
> <activity>
10.6

> <InChiKey>
VLSVVMPLPMNWBH-UHFFFAOYSA-N

$$$$

  Mrv2220 08292413132D          

 11 11  0  0  0  0            999 V2000
   -0.6865   -2.4373    0.0000 C   0  0  0  0  0  0  0  0  0  0  0  0
    0.0280   -2.0248    0.0000 C   0  0  0  0  0  0  0  0  0  0  0  0
    0.7425   -2.4373    0.0000 C   0  0  0  0  0  0  0  0  0  0  0  0
    1.4569   -2.0248    0.0000 C   0  0  0  0  0  0  0  0  0  0  0  0
    2.1714   -2.4373    0.0000 C   0  0  0  0  0  0  0  0  0  0  0  0
    2.8859   -2.0248    0.0000 C   0  0  0  0  0  0  0  0  0  0  0  0
    2.9721   -1.2043    0.0000 C   0  0  0  0  0  0  0  0  0  0  0  0
    3.7791   -1.0328    0.0000 C   0  0  0  0  0  0  0  0  0  0  0  0
    4.1916   -1.7472    0.0000 C   0  0  0  0  0  0  0  0  0  0  0  0
    5.0121   -1.8335    0.0000 O   0  0  0  0  0  0  0  0  0  0  0  0
    3.6396   -2.3603    0.0000 O   0  0  0  0  0  0  0  0  0  0  0  0
  1  2  1  0  0  0  0
  2  3  1  0  0  0  0
  3  4  1  0  0  0  0
  4  5  1  0  0  0  0
  5  6  1  0  0  0  0
  6  7  1  0  0  0  0
  7  8  1  0  0  0  0
  8  9  1  0  0  0  0
  9 10  2  0  0  0  0
  9 11  1  0  0  0  0
  6 11  1  0  0  0  0
M  END
> <activity>
13.3

> <InChiKey>
OALYTRUKMRCXNH-UHFFFAOYSA-N

$$$$

  Mrv2220 08292413132D          

 14 13  0  0  0  0            999 V2000
    5.7750    2.8579    0.0000 C   0  0  0  0  0  0  0  0  0  0  0  0
    4.9500    2.8579    0.0000 C   0  0  0  0  0  0  0  0  0  0  0  0
    4.5375    3.5724    0.0000 O   0  0  0  0  0  0  0  0  0  0  0  0
    4.5375    2.1434    0.0000 O   0  0  0  0  0  0  0  0  0  0  0  0
    3.7125    2.1434    0.0000 C   0  0  0  0  0  0  0  0  0  0  0  0
    3.3000    1.4289    0.0000 C   0  0  0  0  0  0  0  0  0  0  0  0
    2.4750    1.4289    0.0000 C   0  0  0  0  0  0  0  0  0  0  0  0
    2.0625    2.1434    0.0000 C   0  0  0  0  0  0  0  0  0  0  0  0
    2.0625    0.7145    0.0000 C   0  0  0  0  0  0  0  0  0  0  0  0
    1.2375    0.7145    0.0000 C   0  0  0  0  0  0  0  0  0  0  0  0
    0.8250    0.0000    0.0000 C   0  0  0  0  0  0  0  0  0  0  0  0
    0.0000    0.0000    0.0000 C   0  0  0  0  0  0  0  0  0  0  0  0
   -0.4125   -0.7145    0.0000 C   0  0  0  0  0  0  0  0  0  0  0  0
   -0.4125    0.7145    0.0000 C   0  0  0  0  0  0  0  0  0  0  0  0
  1  2  1  0  0  0  0
  2  3  2  0  0  0  0
  2  4  1  0  0  0  0
  4  5  1  0  0  0  0
  6  5  1  4  0  0  0
  6  7  2  0  0  0  0
  7  8  1  0  0  0  0
  7  9  1  0  0  0  0
  9 10  1  0  0  0  0
 10 11  1  0  0  0  0
 11 12  2  0  0  0  0
 12 13  1  0  0  0  0
 12 14  1  0  0  0  0
M  END
> <activity>
24.6

> <InChiKey>
HIGQPQRQIQDZMP-UHFFFAOYSA-N

$$$$

  Mrv2220 08292413132D          

 15 14  0  0  0  0            999 V2000
    5.4730    3.9849    0.0000 C   0  0  0  0  0  0  0  0  0  0  0  0
    6.1875    3.5724    0.0000 C   0  0  0  0  0  0  0  0  0  0  0  0
    6.9020    3.9849    0.0000 C   0  0  0  0  0  0  0  0  0  0  0  0
    7.6164    3.5724    0.0000 C   0  0  0  0  0  0  0  0  0  0  0  0
    8.3309    3.9849    0.0000 C   0  0  0  0  0  0  0  0  0  0  0  0
    9.0454    3.5724    0.0000 C   0  0  0  0  0  0  0  0  0  0  0  0
    9.7599    3.9849    0.0000 C   0  0  0  0  0  0  0  0  0  0  0  0
   10.4743    3.5724    0.0000 C   0  0  0  0  0  0  0  0  0  0  0  0
   10.4743    2.7474    0.0000 O   0  0  0  0  0  0  0  0  0  0  0  0
   11.1888    3.9849    0.0000 O   0  0  0  0  0  0  0  0  0  0  0  0
   11.9033    3.5724    0.0000 C   0  0  0  0  0  0  0  0  0  0  0  0
   12.6177    3.9849    0.0000 C   0  0  0  0  0  0  0  0  0  0  0  0
   12.6177    4.8099    0.0000 O   0  0  0  0  0  0  0  0  0  0  0  0
   13.3322    3.5724    0.0000 C   0  0  0  0  0  0  0  0  0  0  0  0
   14.0467    3.9849    0.0000 O   0  0  0  0  0  0  0  0  0  0  0  0
  1  2  1  0  0  0  0
  2  3  1  0  0  0  0
  3  4  1  0  0  0  0
  4  5  1  0  0  0  0
  5  6  1  0  0  0  0
  6  7  1  0  0  0  0
  7  8  1  0  0  0  0
  8  9  2  0  0  0  0
  8 10  1  0  0  0  0
 10 11  1  0  0  0  0
 11 12  1  0  0  0  0
 12 13  1  0  0  0  0
 12 14  1  0  0  0  0
 14 15  1  0  0  0  0
M  END
> <activity>
35.0

> <InChiKey>
GHBFNMLVSPCDGN-UHFFFAOYSA-N

$$$$

  Mrv2220 08292413132D          

 25 24  0  0  0  0            999 V2000
   -1.6717    3.9849    0.0000 C   0  0  0  0  0  0  0  0  0  0  0  0
   -0.9572    3.5724    0.0000 C   0  0  0  0  0  0  0  0  0  0  0  0
   -0.2427    3.9849    0.0000 C   0  0  0  0  0  0  0  0  0  0  0  0
    0.4717    3.5724    0.0000 C   0  0  0  0  0  0  0  0  0  0  0  0
    1.1862    3.9849    0.0000 C   0  0  0  0  0  0  0  0  0  0  0  0
    1.9007    3.5724    0.0000 C   0  0  0  0  0  0  0  0  0  0  0  0
    2.6151    3.9849    0.0000 C   0  0  0  0  0  0  0  0  0  0  0  0
    3.3296    3.5724    0.0000 C   0  0  0  0  0  0  0  0  0  0  0  0
    4.0441    3.9849    0.0000 C   0  0  0  0  0  0  0  0  0  0  0  0
    4.7586    3.5724    0.0000 C   0  0  0  0  0  0  0  0  0  0  0  0
    5.4730    3.9849    0.0000 C   0  0  0  0  0  0  0  0  0  0  0  0
    6.1875    3.5724    0.0000 C   0  0  0  0  0  0  0  0  0  0  0  0
    6.9020    3.9849    0.0000 C   0  0  0  0  0  0  0  0  0  0  0  0
    7.6164    3.5724    0.0000 C   0  0  0  0  0  0  0  0  0  0  0  0
    8.3309    3.9849    0.0000 C   0  0  0  0  0  0  0  0  0  0  0  0
    9.0454    3.5724    0.0000 C   0  0  0  0  0  0  0  0  0  0  0  0
    9.7599    3.9849    0.0000 C   0  0  0  0  0  0  0  0  0  0  0  0
   10.4743    3.5724    0.0000 C   0  0  0  0  0  0  0  0  0  0  0  0
   10.4743    2.7474    0.0000 O   0  0  0  0  0  0  0  0  0  0  0  0
   11.1888    3.9849    0.0000 O   0  0  0  0  0  0  0  0  0  0  0  0
   11.9033    3.5724    0.0000 C   0  0  0  0  0  0  0  0  0  0  0  0
   12.6177    3.9849    0.0000 C   0  0  0  0  0  0  0  0  0  0  0  0
   12.6177    4.8099    0.0000 O   0  0  0  0  0  0  0  0  0  0  0  0
   13.3322    3.5724    0.0000 C   0  0  0  0  0  0  0  0  0  0  0  0
   14.0467    3.9849    0.0000 O   0  0  0  0  0  0  0  0  0  0  0  0
  1  2  1  0  0  0  0
  2  3  1  0  0  0  0
  3  4  1  0  0  0  0
  4  5  1  0  0  0  0
  5  6  1  0  0  0  0
  6  7  1  0  0  0  0
  7  8  1  0  0  0  0
  9  8  1  4  0  0  0
  9 10  2  0  0  0  0
 10 11  1  0  0  0  0
 11 12  1  0  0  0  0
 12 13  1  0  0  0  0
 13 14  1  0  0  0  0
 14 15  1  0  0  0  0
 15 16  1  0  0  0  0
 16 17  1  0  0  0  0
 17 18  1  0  0  0  0
 18 19  2  0  0  0  0
 18 20  1  0  0  0  0
 20 21  1  0  0  0  0
 21 22  1  0  0  0  0
 22 23  1  0  0  0  0
 22 24  1  0  0  0  0
 24 25  1  0  0  0  0
M  END
> <activity>
76.5

> <InChiKey>
RZRNAYUHWVFMIP-UHFFFAOYSA-N

$$$$

  Mrv2220 08292413132D          

 26 25  0  0  0  0            999 V2000
   -1.6717    3.9849    0.0000 C   0  0  0  0  0  0  0  0  0  0  0  0
   -0.9572    3.5724    0.0000 C   0  0  0  0  0  0  0  0  0  0  0  0
   -0.2427    3.9849    0.0000 C   0  0  0  0  0  0  0  0  0  0  0  0
    0.4717    3.5724    0.0000 C   0  0  0  0  0  0  0  0  0  0  0  0
    1.1862    3.9849    0.0000 C   0  0  0  0  0  0  0  0  0  0  0  0
    1.9007    3.5724    0.0000 C   0  0  0  0  0  0  0  0  0  0  0  0
    2.6151    3.9849    0.0000 C   0  0  0  0  0  0  0  0  0  0  0  0
    2.6151    4.8099    0.0000 O   0  0  0  0  0  0  0  0  0  0  0  0
    3.3296    3.5724    0.0000 C   0  0  0  0  0  0  0  0  0  0  0  0
    4.0441    3.9849    0.0000 C   0  0  0  0  0  0  0  0  0  0  0  0
    4.7586    3.5724    0.0000 C   0  0  0  0  0  0  0  0  0  0  0  0
    5.4730    3.9849    0.0000 C   0  0  0  0  0  0  0  0  0  0  0  0
    6.1875    3.5724    0.0000 C   0  0  0  0  0  0  0  0  0  0  0  0
    6.9020    3.9849    0.0000 C   0  0  0  0  0  0  0  0  0  0  0  0
    7.6164    3.5724    0.0000 C   0  0  0  0  0  0  0  0  0  0  0  0
    8.3309    3.9849    0.0000 C   0  0  0  0  0  0  0  0  0  0  0  0
    9.0454    3.5724    0.0000 C   0  0  0  0  0  0  0  0  0  0  0  0
    9.7599    3.9849    0.0000 C   0  0  0  0  0  0  0  0  0  0  0  0
   10.4743    3.5724    0.0000 C   0  0  0  0  0  0  0  0  0  0  0  0
   10.4743    2.7474    0.0000 O   0  0  0  0  0  0  0  0  0  0  0  0
   11.1888    3.9849    0.0000 O   0  0  0  0  0  0  0  0  0  0  0  0
   11.9033    3.5724    0.0000 C   0  0  0  0  0  0  0  0  0  0  0  0
   12.6177    3.9849    0.0000 C   0  0  0  0  0  0  0  0  0  0  0  0
   12.6177    4.8099    0.0000 O   0  0  0  0  0  0  0  0  0  0  0  0
   13.3322    3.5724    0.0000 C   0  0  0  0  0  0  0  0  0  0  0  0
   14.0467    3.9849    0.0000 O   0  0  0  0  0  0  0  0  0  0  0  0
  1  2  1  0  0  0  0
  2  3  1  0  0  0  0
  3  4  1  0  0  0  0
  4  5  1  0  0  0  0
  5  6  1  0  0  0  0
  6  7  1  0  0  0  0
  7  8  1  0  0  0  0
  7  9  1  0  0  0  0
 10  9  1  4  0  0  0
 10 11  2  0  0  0  0
 11 12  1  0  0  0  0
 12 13  1  0  0  0  0
 13 14  1  0  0  0  0
 14 15  1  0  0  0  0
 15 16  1  0  0  0  0
 16 17  1  0  0  0  0
 17 18  1  0  0  0  0
 18 19  1  0  0  0  0
 19 20  2  0  0  0  0
 19 21  1  0  0  0  0
 21 22  1  0  0  0  0
 22 23  1  0  0  0  0
 23 24  1  0  0  0  0
 23 25  1  0  0  0  0
 25 26  1  0  0  0  0
M  END
> <activity>
85.6

> <InChiKey>
HDIFHQMREAYYJW-UHFFFAOYSA-N

$$$$

  Mrv2220 08292413132D          

 25 24  0  0  0  0            999 V2000
   11.6605    7.5572    0.0000 C   0  0  0  0  0  0  0  0  0  0  0  0
   12.3750    7.1447    0.0000 C   0  0  0  0  0  0  0  0  0  0  0  0
   13.0895    7.5572    0.0000 C   0  0  0  0  0  0  0  0  0  0  0  0
   13.8039    7.1447    0.0000 C   0  0  0  0  0  0  0  0  0  0  0  0
   14.5184    7.5572    0.0000 C   0  0  0  0  0  0  0  0  0  0  0  0
   15.2329    7.1447    0.0000 C   0  0  0  0  0  0  0  0  0  0  0  0
   15.9474    7.5572    0.0000 C   0  0  0  0  0  0  0  0  0  0  0  0
   16.6618    7.1447    0.0000 C   0  0  0  0  0  0  0  0  0  0  0  0
   17.3763    7.5572    0.0000 C   0  0  0  0  0  0  0  0  0  0  0  0
   18.0908    7.1447    0.0000 C   0  0  0  0  0  0  0  0  0  0  0  0
   18.8052    7.5572    0.0000 C   0  0  0  0  0  0  0  0  0  0  0  0
   19.5197    7.1447    0.0000 C   0  0  0  0  0  0  0  0  0  0  0  0
   20.2342    7.5572    0.0000 C   0  0  0  0  0  0  0  0  0  0  0  0
   20.9487    7.1447    0.0000 C   0  0  0  0  0  0  0  0  0  0  0  0
   21.6631    7.5572    0.0000 C   0  0  0  0  0  0  0  0  0  0  0  0
   22.3776    7.1447    0.0000 C   0  0  0  0  0  0  0  0  0  0  0  0
   23.0921    7.5572    0.0000 C   0  0  0  0  0  0  0  0  0  0  0  0
   23.8065    7.1447    0.0000 C   0  0  0  0  0  0  0  0  0  0  0  0
   23.8065    6.3197    0.0000 O   0  0  0  0  0  0  0  0  0  0  0  0
   24.5210    7.5572    0.0000 O   0  0  0  0  0  0  0  0  0  0  0  0
   25.2355    7.1447    0.0000 C   0  0  0  0  0  0  0  0  0  0  0  0
   25.9499    7.5572    0.0000 C   0  0  0  0  0  0  0  0  0  0  0  0
   25.9499    8.3822    0.0000 O   0  0  0  0  0  0  0  0  0  0  0  0
   26.6644    7.1447    0.0000 C   0  0  0  0  0  0  0  0  0  0  0  0
   27.3789    7.5572    0.0000 O   0  0  0  0  0  0  0  0  0  0  0  0
  1  2  1  0  0  0  0
  2  3  1  0  0  0  0
  3  4  1  0  0  0  0
  4  5  1  0  0  0  0
  5  6  1  0  0  0  0
  6  7  1  0  0  0  0
  7  8  1  0  0  0  0
  8  9  1  0  0  0  0
  9 10  1  0  0  0  0
 10 11  1  0  0  0  0
 11 12  1  0  0  0  0
 12 13  1  0  0  0  0
 13 14  1  0  0  0  0
 14 15  1  0  0  0  0
 15 16  1  0  0  0  0
 16 17  1  0  0  0  0
 17 18  1  0  0  0  0
 18 19  2  0  0  0  0
 18 20  1  0  0  0  0
 20 21  1  0  0  0  0
 21 22  1  0  0  0  0
 22 23  1  0  0  0  0
 22 24  1  0  0  0  0
 24 25  1  0  0  0  0
M  END
> <activity>
9.3

> <InChiKey>
VBICKXHEKHSIBG-UHFFFAOYSA-N

$$$$

  Mrv2220 08292413132D          

  5  5  0  0  0  0            999 V2000
   -0.4763    2.1263    0.0000 O   0  0  0  0  0  0  0  0  0  0  0  0
    0.2382    1.7138    0.0000 C   0  0  0  0  0  0  0  0  0  0  0  0
    0.2382    0.8888    0.0000 C   0  0  0  0  0  0  0  0  0  0  0  0
    0.6507    0.1743    0.0000 C   0  0  0  0  0  0  0  0  0  0  0  0
   -0.1743    0.1743    0.0000 O   0  0  0  0  0  0  0  0  0  0  0  0
  1  2  1  0  0  0  0
  2  3  1  0  0  0  0
  3  4  1  0  0  0  0
  4  5  1  0  0  0  0
  3  5  1  0  0  0  0
M  END
> <activity>
2.9

> <InChiKey>
CTKINSOISVBQLD-UHFFFAOYSA-N

$$$$

  Mrv2220 08292413132D          

 19 19  0  0  0  0            999 V2000
    1.4289   -4.9500    0.0000 C   0  0  0  0  0  0  0  0  0  0  0  0
    2.1434   -5.3625    0.0000 C   0  0  0  0  0  0  0  0  0  0  0  0
    2.8579   -4.9500    0.0000 C   0  0  0  0  0  0  0  0  0  0  0  0
    3.5724   -5.3625    0.0000 C   0  0  0  0  0  0  0  0  0  0  0  0
    4.2868   -4.9500    0.0000 C   0  0  0  0  0  0  0  0  0  0  0  0
    5.0013   -5.3625    0.0000 C   0  0  0  0  0  0  0  0  0  0  0  0
    5.7158   -4.9500    0.0000 C   0  0  0  0  0  0  0  0  0  0  0  0
    6.4302   -5.3625    0.0000 C   0  0  0  0  0  0  0  0  0  0  0  0
    7.1447   -4.9500    0.0000 C   0  0  0  0  0  0  0  0  0  0  0  0
    7.8592   -5.3625    0.0000 C   0  0  0  0  0  0  0  0  0  0  0  0
    8.5737   -4.9500    0.0000 C   0  0  0  0  0  0  0  0  0  0  0  0
    9.2881   -5.3625    0.0000 C   0  0  0  0  0  0  0  0  0  0  0  0
    9.2881   -6.1875    0.0000 C   0  0  0  0  0  0  0  0  0  0  0  0
   10.0026   -6.6000    0.0000 O   0  0  0  0  0  0  0  0  0  0  0  0
   10.7171   -6.1875    0.0000 C   0  0  0  0  0  0  0  0  0  0  0  0
   11.4315   -6.6000    0.0000 C   0  0  0  0  0  0  0  0  0  0  0  0
   12.1460   -6.1875    0.0000 O   0  0  0  0  0  0  0  0  0  0  0  0
    8.5737   -6.6000    0.0000 C   0  0  0  0  0  0  0  0  0  0  0  0
    7.8592   -6.1875    0.0000 C   0  0  0  0  0  0  0  0  0  0  0  0
  1  2  1  0  0  0  0
  2  3  1  0  0  0  0
  3  4  1  0  0  0  0
  4  5  1  0  0  0  0
  5  6  1  0  0  0  0
  6  7  1  0  0  0  0
  7  8  1  0  0  0  0
  8  9  1  0  0  0  0
  9 10  1  0  0  0  0
 10 11  4  0  0  0  0
 11 12  4  0  0  0  0
 12 13  4  0  0  0  0
 13 14  1  0  0  0  0
 14 15  1  0  0  0  0
 15 16  1  0  0  0  0
 16 17  1  0  0  0  0
 13 18  4  0  0  0  0
 18 19  4  0  0  0  0
 10 19  4  0  0  0  0
M  END
> <activity>
44.3

> <InChiKey>
KUXGUCNZFCVULO-UHFFFAOYSA-N

$$$$

  Mrv2220 08292413132D          

 10 11  0  0  0  0            999 V2000
   -0.0404   -0.2549    0.0000 O   0  0  0  0  0  0  0  0  0  0  0  0
    0.7846   -0.2549    0.0000 C   0  0  0  0  0  0  0  0  0  0  0  0
    1.2695    0.4125    0.0000 N   0  0  0  0  0  0  0  0  0  0  0  0
    2.0542    0.1576    0.0000 C   0  0  0  0  0  0  0  0  0  0  0  0
    2.8388    0.4125    0.0000 N   0  0  0  0  0  0  0  0  0  0  0  0
    3.3237   -0.2549    0.0000 C   0  0  0  0  0  0  0  0  0  0  0  0
    4.1487   -0.2549    0.0000 O   0  0  0  0  0  0  0  0  0  0  0  0
    2.8388   -0.9224    0.0000 N   0  0  0  0  0  0  0  0  0  0  0  0
    2.0542   -0.6674    0.0000 C   0  0  0  0  0  0  0  0  0  0  0  0
    1.2695   -0.9224    0.0000 N   0  0  0  0  0  0  0  0  0  0  0  0
  1  2  2  0  0  0  0
  2  3  1  0  0  0  0
  3  4  1  0  0  0  0
  4  5  1  0  0  0  0
  5  6  1  0  0  0  0
  6  7  2  0  0  0  0
  6  8  1  0  0  0  0
  8  9  1  0  0  0  0
  4  9  1  0  0  0  0
  9 10  1  0  0  0  0
  2 10  1  0  0  0  0
M  END
> <activity>
6.5

> <InChiKey>
VPVSTMAPERLKKM-UHFFFAOYSA-N

$$$$

  Mrv2220 08292413132D          

 35 34  0  0  0  0            999 V2000
   12.8980    8.2717    0.0000 C   0  0  0  0  0  0  0  0  0  0  0  0
   13.6125    7.8592    0.0000 C   0  0  0  0  0  0  0  0  0  0  0  0
   14.3270    8.2717    0.0000 C   0  0  0  0  0  0  0  0  0  0  0  0
   15.0414    7.8592    0.0000 C   0  0  0  0  0  0  0  0  0  0  0  0
   15.7559    8.2717    0.0000 C   0  0  0  0  0  0  0  0  0  0  0  0
   16.4704    7.8592    0.0000 C   0  0  0  0  0  0  0  0  0  0  0  0
   17.1849    8.2717    0.0000 C   0  0  0  0  0  0  0  0  0  0  0  0
   17.8993    7.8592    0.0000 C   0  0  0  0  0  0  0  0  0  0  0  0
   18.6138    8.2717    0.0000 C   0  0  0  0  0  0  0  0  0  0  0  0
   19.3283    7.8592    0.0000 C   0  0  0  0  0  0  0  0  0  0  0  0
   20.0427    8.2717    0.0000 C   0  0  0  0  0  0  0  0  0  0  0  0
   20.7572    7.8592    0.0000 C   0  0  0  0  0  0  0  0  0  0  0  0
   21.4717    8.2717    0.0000 C   0  0  0  0  0  0  0  0  0  0  0  0
   22.1862    7.8592    0.0000 C   0  0  0  0  0  0  0  0  0  0  0  0
   22.9006    8.2717    0.0000 C   0  0  0  0  0  0  0  0  0  0  0  0
   23.6151    7.8592    0.0000 C   0  0  0  0  0  0  0  0  0  0  0  0
   24.3296    8.2717    0.0000 C   0  0  0  0  0  0  0  0  0  0  0  0
   25.0440    7.8592    0.0000 C   0  0  0  0  0  0  0  0  0  0  0  0
   25.0440    7.0342    0.0000 O   0  0  0  0  0  0  0  0  0  0  0  0
   25.7585    8.2717    0.0000 O   0  0  0  0  0  0  0  0  0  0  0  0
   26.4730    7.8592    0.0000 C   0  0  0  0  0  0  0  0  0  0  0  0
   27.1874    8.2717    0.0000 C   0  0  0  0  0  0  0  0  0  0  0  0
   27.9019    7.8592    0.0000 C   0  0  0  0  0  0  0  0  0  0  0  0
   28.6164    8.2717    0.0000 O   0  0  0  0  0  0  0  0  0  0  0  0
   29.3309    7.8592    0.0000 C   0  0  0  0  0  0  0  0  0  0  0  0
   30.0453    8.2717    0.0000 C   0  0  0  0  0  0  0  0  0  0  0  0
   29.3309    7.0342    0.0000 O   0  0  0  0  0  0  0  0  0  0  0  0
   27.1874    9.0967    0.0000 O   0  0  0  0  0  0  0  0  0  0  0  0
   26.4730    9.5092    0.0000 C   0  0  0  0  0  0  0  0  0  0  0  0
   25.7585    9.0967    0.0000 C   0  0  0  0  0  0  0  0  0  0  0  0
   26.4730   10.3342    0.0000 O   0  0  0  0  0  0  0  0  0  0  0  0
   17.1849    9.0967    0.0000 O   0  0  0  0  0  0  0  0  0  0  0  0
   16.4704    9.5092    0.0000 C   0  0  0  0  0  0  0  0  0  0  0  0
   15.7559    9.0967    0.0000 C   0  0  0  0  0  0  0  0  0  0  0  0
   16.4704   10.3342    0.0000 O   0  0  0  0  0  0  0  0  0  0  0  0
  1  2  1  0  0  0  0
  2  3  1  0  0  0  0
  3  4  1  0  0  0  0
  4  5  1  0  0  0  0
  5  6  1  0  0  0  0
  6  7  1  0  0  0  0
  7  8  1  0  0  0  0
  8  9  1  0  0  0  0
  9 10  1  0  0  0  0
 10 11  1  0  0  0  0
 11 12  1  0  0  0  0
 12 13  1  0  0  0  0
 13 14  1  0  0  0  0
 14 15  1  0  0  0  0
 15 16  1  0  0  0  0
 16 17  1  0  0  0  0
 17 18  1  0  0  0  0
 18 19  2  0  0  0  0
 18 20  1  0  0  0  0
 20 21  1  0  0  0  0
 21 22  1  0  0  0  0
 22 23  1  0  0  0  0
 23 24  1  0  0  0  0
 24 25  1  0  0  0  0
 25 26  1  0  0  0  0
 25 27  2  0  0  0  0
 22 28  1  0  0  0  0
 28 29  1  0  0  0  0
 29 30  1  0  0  0  0
 29 31  2  0  0  0  0
  7 32  1  0  0  0  0
 32 33  1  0  0  0  0
 33 34  1  0  0  0  0
 33 35  2  0  0  0  0
M  END
> <activity>
21.2

> <InChiKey>
YOFNHFCYYYNJPN-UHFFFAOYSA-N

$$$$

  Mrv2220 08292413132D          

 22 22  0  0  0  0            999 V2000
    0.7145    2.8875    0.0000 N   0  0  0  0  0  0  0  0  0  0  0  0
    0.7145    2.0625    0.0000 C   0  0  0  0  0  0  0  0  0  0  0  0
    0.7145    1.2375    0.0000 C   0  0  0  0  0  0  0  0  0  0  0  0
    1.4289    0.8250    0.0000 C   0  0  0  0  0  0  0  0  0  0  0  0
    1.4289   -0.0000    0.0000 C   0  0  0  0  0  0  0  0  0  0  0  0
    0.7145   -0.4125    0.0000 C   0  0  0  0  0  0  0  0  0  0  0  0
    0.7145   -1.2375    0.0000 N   0  0  0  0  0  0  0  0  0  0  0  0
    1.4289   -1.6500    0.0000 C   0  0  0  0  0  0  0  0  0  0  0  0
    1.4289   -2.4750    0.0000 C   0  0  0  0  0  0  0  0  0  0  0  0
    2.1434   -2.8875    0.0000 N   0  0  0  0  0  0  0  0  0  0  0  0
    0.7145   -2.8875    0.0000 O   0  0  0  0  0  0  0  0  0  0  0  0
   -0.0000   -1.6500    0.0000 C   0  0  0  0  0  0  0  0  0  0  0  0
   -0.7145   -1.2375    0.0000 C   0  0  0  0  0  0  0  0  0  0  0  0
   -0.3020   -0.5230    0.0000 F   0  0  0  0  0  0  0  0  0  0  0  0
   -1.1270   -1.9520    0.0000 F   0  0  0  0  0  0  0  0  0  0  0  0
   -1.4289   -0.8250    0.0000 F   0  0  0  0  0  0  0  0  0  0  0  0
    0.0000    0.0000    0.0000 C   0  0  0  0  0  0  0  0  0  0  0  0
    0.0000    0.8250    0.0000 C   0  0  0  0  0  0  0  0  0  0  0  0
   -0.7145    1.2375    0.0000 C   0  0  0  0  0  0  0  0  0  0  0  0
   -1.4289    1.6500    0.0000 F   0  0  0  0  0  0  0  0  0  0  0  0
   -0.3020    1.9520    0.0000 F   0  0  0  0  0  0  0  0  0  0  0  0
   -1.1270    0.5230    0.0000 F   0  0  0  0  0  0  0  0  0  0  0  0
  1  2  3  0  0  0  0
  2  3  1  0  0  0  0
  3  4  4  0  0  0  0
  4  5  4  0  0  0  0
  5  6  4  0  0  0  0
  6  7  1  0  0  0  0
  7  8  1  0  0  0  0
  8  9  1  0  0  0  0
  9 10  1  0  0  0  0
  9 11  2  0  0  0  0
  7 12  1  0  0  0  0
 12 13  1  0  0  0  0
 13 14  1  0  0  0  0
 13 15  1  0  0  0  0
 13 16  1  0  0  0  0
  6 17  4  0  0  0  0
 17 18  4  0  0  0  0
  3 18  4  0  0  0  0
 18 19  1  0  0  0  0
 19 20  1  0  0  0  0
 19 21  1  0  0  0  0
 19 22  1  0  0  0  0
M  END
> <activity>
21.3

> <InChiKey>
ZDYGKWOTFUOWOA-UHFFFAOYSA-N

$$$$

  Mrv2220 08292413132D          

 26 27  0  0  0  0            999 V2000
   -4.2868   -2.4750    0.0000 C   0  0  0  0  0  0  0  0  0  0  0  0
   -3.5724   -2.8875    0.0000 C   0  0  0  0  0  0  0  0  0  0  0  0
   -2.8579   -2.4750    0.0000 N   0  0  0  0  0  0  0  0  0  0  0  0
   -2.1434   -2.8875    0.0000 C   0  0  0  0  0  0  0  0  0  0  0  0
   -2.1434   -3.7125    0.0000 O   0  0  0  0  0  0  0  0  0  0  0  0
   -1.4289   -2.4750    0.0000 C   0  0  0  0  0  0  0  0  0  0  0  0
   -1.4289   -1.6500    0.0000 C   0  0  0  0  0  0  0  0  0  0  0  0
   -0.7145   -1.2375    0.0000 C   0  0  0  0  0  0  0  0  0  0  0  0
   -0.7145   -0.4125    0.0000 C   0  0  0  0  0  0  0  0  0  0  0  0
    0.0000   -1.6500    0.0000 C   0  0  0  0  0  0  0  0  0  0  0  0
    0.0000   -2.4750    0.0000 C   0  0  0  0  0  0  0  0  0  0  0  0
    0.7145   -2.8875    0.0000 O   0  0  0  0  0  0  0  0  0  0  0  0
    1.4289   -2.4750    0.0000 C   0  0  0  0  0  0  0  0  0  0  0  0
    2.1434   -2.8875    0.0000 C   0  0  0  0  0  0  0  0  0  0  0  0
    2.1434   -3.7125    0.0000 C   0  0  0  0  0  0  0  0  0  0  0  0
    2.8579   -2.4750    0.0000 N   0  0  0  0  0  0  0  0  0  0  0  0
    3.5724   -2.8875    0.0000 C   0  0  0  0  0  0  0  0  0  0  0  0
    4.2868   -2.4750    0.0000 C   0  0  0  0  0  0  0  0  0  0  0  0
    5.0013   -2.8875    0.0000 C   0  0  0  0  0  0  0  0  0  0  0  0
    5.0013   -3.7125    0.0000 N   0  0  0  0  0  0  0  0  0  0  0  0
    4.2868   -4.1250    0.0000 C   0  0  0  0  0  0  0  0  0  0  0  0
    3.5724   -3.7125    0.0000 C   0  0  0  0  0  0  0  0  0  0  0  0
   -0.7145   -2.8875    0.0000 C   0  0  0  0  0  0  0  0  0  0  0  0
   -2.8579   -1.6500    0.0000 C   0  0  0  0  0  0  0  0  0  0  0  0
   -2.1434   -1.2375    0.0000 C   0  0  0  0  0  0  0  0  0  0  0  0
   -3.5724   -1.2375    0.0000 C   0  0  0  0  0  0  0  0  0  0  0  0
  1  2  1  0  0  0  0
  2  3  1  0  0  0  0
  3  4  1  0  0  0  0
  4  5  2  0  0  0  0
  4  6  1  0  0  0  0
  6  7  4  0  0  0  0
  7  8  4  0  0  0  0
  8  9  1  0  0  0  0
  8 10  4  0  0  0  0
 10 11  4  0  0  0  0
 11 12  1  0  0  0  0
 12 13  1  0  0  0  0
 13 14  1  0  0  0  0
 14 15  1  0  0  0  0
 14 16  1  0  0  0  0
 16 17  1  0  0  0  0
 17 18  4  0  0  0  0
 18 19  4  0  0  0  0
 19 20  4  0  0  0  0
 20 21  4  0  0  0  0
 21 22  4  0  0  0  0
 17 22  4  0  0  0  0
 11 23  4  0  0  0  0
  6 23  4  0  0  0  0
  3 24  1  0  0  0  0
 24 25  1  0  0  0  0
 24 26  1  0  0  0  0
M  END
> <activity>
5.9

> <InChiKey>
JMPSZYHYDMQFEO-UHFFFAOYSA-N

$$$$

  Mrv2220 08292413132D          

 18 21  0  0  0  0            999 V2000
   -0.3623    1.2250    0.0000 Cl  0  0  0  0  0  0  0  0  0  0  0  0
    0.1904    0.4832    0.0000 C   0  0  0  0  0  0  0  0  0  0  0  0
    0.3587   -0.3245    0.0000 C   0  0  0  0  0  0  0  0  0  0  0  0
    0.1018   -1.2061    0.0000 Cl  0  0  0  0  0  0  0  0  0  0  0  0
    1.0258   -0.5761    0.0000 C   0  0  0  0  0  0  0  0  0  0  0  0
    1.3636   -1.3830    0.0000 Cl  0  0  0  0  0  0  0  0  0  0  0  0
    1.6411   -0.0265    0.0000 C   0  0  0  0  0  0  0  0  0  0  0  0
    2.4612   -0.1161    0.0000 C   0  0  0  0  0  0  0  0  0  0  0  0
    3.2820   -0.0332    0.0000 O   0  0  0  0  0  0  0  0  0  0  0  0
    2.7998    0.6362    0.0000 C   0  0  0  0  0  0  0  0  0  0  0  0
    2.1890    1.1907    0.0000 C   0  0  0  0  0  0  0  0  0  0  0  0
    2.4268    2.0126    0.0000 Cl  0  0  0  0  0  0  0  0  0  0  0  0
    1.4729    0.7811    0.0000 C   0  0  0  0  0  0  0  0  0  0  0  0
    0.6893    1.0393    0.0000 C   0  0  0  0  0  0  0  0  0  0  0  0
    0.6057    1.9104    0.0000 Cl  0  0  0  0  0  0  0  0  0  0  0  0
    0.6556    0.1895    0.0000 C   0  0  0  0  0  0  0  0  0  0  0  0
   -0.3543    0.3197    0.0000 Cl  0  0  0  0  0  0  0  0  0  0  0  0
   -0.2174   -0.3266    0.0000 Cl  0  0  0  0  0  0  0  0  0  0  0  0
  1  2  1  0  0  0  0
  2  3  2  0  0  0  0
  3  4  1  0  0  0  0
  3  5  1  0  0  0  0
  5  6  1  0  0  0  0
  5  7  1  0  0  0  0
  7  8  1  0  0  0  0
  8  9  1  0  0  0  0
  9 10  1  0  0  0  0
  8 10  1  0  0  0  0
 10 11  1  0  0  0  0
 11 12  1  0  0  0  0
 11 13  1  0  0  0  0
  7 13  1  0  0  0  0
 13 14  1  0  0  0  0
  2 14  1  0  0  0  0
 14 15  1  0  0  0  0
 14 16  1  0  0  0  0
  5 16  1  0  0  0  0
 16 17  1  0  0  0  0
 16 18  1  0  0  0  0
M  END
> <activity>
-20.2

> <InChiKey>
ZXFXBSWRVIQKOD-UHFFFAOYSA-N

$$$$

  Mrv2220 08292413132D          

  8  7  0  0  0  0            999 V2000
    1.0461    1.4289    0.0000 C   0  0  0  0  0  0  0  0  0  0  0  0
    1.7605    1.8414    0.0000 C   0  0  0  0  0  0  0  0  0  0  0  0
    2.4750    1.4289    0.0000 C   0  0  0  0  0  0  0  0  0  0  0  0
    3.1895    1.8414    0.0000 C   0  0  0  0  0  0  0  0  0  0  0  0
    3.9039    1.4289    0.0000 C   0  0  0  0  0  0  0  0  0  0  0  0
    4.6184    1.8414    0.0000 C   0  0  0  0  0  0  0  0  0  0  0  0
    5.3329    1.4289    0.0000 C   0  0  0  0  0  0  0  0  0  0  0  0
    6.0474    1.8414    0.0000 O   0  0  0  0  0  0  0  0  0  0  0  0
  1  2  1  0  0  0  0
  2  3  1  0  0  0  0
  3  4  1  0  0  0  0
  4  5  1  0  0  0  0
  5  6  1  0  0  0  0
  6  7  1  0  0  0  0
  7  8  2  0  0  0  0
M  END
> <activity>
56.9

> <InChiKey>
FXHGMKSSBGDXIY-UHFFFAOYSA-N

$$$$

  Mrv2220 08292413132D          

  9  8  0  0  0  0            999 V2000
    1.0461    1.4289    0.0000 C   0  0  0  0  0  0  0  0  0  0  0  0
    1.7605    1.8414    0.0000 C   0  0  0  0  0  0  0  0  0  0  0  0
    2.4750    1.4289    0.0000 C   0  0  0  0  0  0  0  0  0  0  0  0
    3.1895    1.8414    0.0000 C   0  0  0  0  0  0  0  0  0  0  0  0
    3.9039    1.4289    0.0000 C   0  0  0  0  0  0  0  0  0  0  0  0
    4.6184    1.8414    0.0000 C   0  0  0  0  0  0  0  0  0  0  0  0
    5.3329    1.4289    0.0000 C   0  0  0  0  0  0  0  0  0  0  0  0
    6.0474    1.8414    0.0000 O   0  0  0  0  0  0  0  0  0  0  0  0
    5.3329    0.6039    0.0000 O   0  0  0  0  0  0  0  0  0  0  0  0
  1  2  1  0  0  0  0
  2  3  1  0  0  0  0
  3  4  1  0  0  0  0
  4  5  1  0  0  0  0
  5  6  1  0  0  0  0
  6  7  1  0  0  0  0
  7  8  2  0  0  0  0
  7  9  1  0  0  0  0
M  END
> <activity>
43.3

> <InChiKey>
MNWFXJYAOYHMED-UHFFFAOYSA-N

$$$$

  Mrv2220 08292413132D          

 14 14  0  0  0  0            999 V2000
    0.7145   -3.7125    0.0000 C   0  0  0  0  0  0  0  0  0  0  0  0
    1.4289   -4.1250    0.0000 C   0  0  0  0  0  0  0  0  0  0  0  0
    2.1434   -3.7125    0.0000 C   0  0  0  0  0  0  0  0  0  0  0  0
    2.8579   -4.1250    0.0000 C   0  0  0  0  0  0  0  0  0  0  0  0
    3.5724   -3.7125    0.0000 C   0  0  0  0  0  0  0  0  0  0  0  0
    4.2868   -4.1250    0.0000 C   0  0  0  0  0  0  0  0  0  0  0  0
    5.0013   -3.7125    0.0000 C   0  0  0  0  0  0  0  0  0  0  0  0
    5.0013   -2.8875    0.0000 O   0  0  0  0  0  0  0  0  0  0  0  0
    5.7158   -4.1250    0.0000 C   0  0  0  0  0  0  0  0  0  0  0  0
    6.4302   -3.7125    0.0000 C   0  0  0  0  0  0  0  0  0  0  0  0
    7.1447   -4.1250    0.0000 C   0  0  0  0  0  0  0  0  0  0  0  0
    7.1447   -4.9500    0.0000 C   0  0  0  0  0  0  0  0  0  0  0  0
    6.4302   -5.3625    0.0000 C   0  0  0  0  0  0  0  0  0  0  0  0
    5.7158   -4.9500    0.0000 C   0  0  0  0  0  0  0  0  0  0  0  0
  1  2  1  0  0  0  0
  2  3  1  0  0  0  0
  3  4  1  0  0  0  0
  4  5  1  0  0  0  0
  5  6  1  0  0  0  0
  6  7  1  0  0  0  0
  7  8  2  0  0  0  0
  7  9  1  0  0  0  0
  9 10  4  0  0  0  0
 10 11  4  0  0  0  0
 11 12  4  0  0  0  0
 12 13  4  0  0  0  0
 13 14  4  0  0  0  0
  9 14  4  0  0  0  0
M  END
> <activity>
41.7

> <InChiKey>
UXMQORVHJMUQFD-UHFFFAOYSA-N

$$$$

  Mrv2220 08292413132D          

 13 12  0  0  0  0            999 V2000
    3.5211    2.8579    0.0000 C   0  0  0  0  0  0  0  0  0  0  0  0
    4.2355    3.2704    0.0000 C   0  0  0  0  0  0  0  0  0  0  0  0
    4.9500    2.8579    0.0000 C   0  0  0  0  0  0  0  0  0  0  0  0
    5.6645    3.2704    0.0000 C   0  0  0  0  0  0  0  0  0  0  0  0
    6.3789    2.8579    0.0000 C   0  0  0  0  0  0  0  0  0  0  0  0
    7.0934    3.2704    0.0000 C   0  0  0  0  0  0  0  0  0  0  0  0
    7.8079    2.8579    0.0000 C   0  0  0  0  0  0  0  0  0  0  0  0
    8.5224    3.2704    0.0000 O   0  0  0  0  0  0  0  0  0  0  0  0
    9.2368    2.8579    0.0000 C   0  0  0  0  0  0  0  0  0  0  0  0
    9.2368    2.0329    0.0000 O   0  0  0  0  0  0  0  0  0  0  0  0
    9.9513    3.2704    0.0000 C   0  0  0  0  0  0  0  0  0  0  0  0
   10.6658    2.8579    0.0000 C   0  0  0  0  0  0  0  0  0  0  0  0
   11.3802    3.2704    0.0000 C   0  0  0  0  0  0  0  0  0  0  0  0
  1  2  1  0  0  0  0
  2  3  1  0  0  0  0
  3  4  1  0  0  0  0
  4  5  1  0  0  0  0
  5  6  1  0  0  0  0
  6  7  1  0  0  0  0
  7  8  1  0  0  0  0
  8  9  1  0  0  0  0
  9 10  2  0  0  0  0
  9 11  1  0  0  0  0
 11 12  1  0  0  0  0
 12 13  1  0  0  0  0
M  END
> <activity>
18.6

> <InChiKey>
JPQHLIYIQARLQM-UHFFFAOYSA-N

$$$$

  Mrv2220 08292413132D          

 17 17  0  0  0  0            999 V2000
    1.4289   -4.9500    0.0000 C   0  0  0  0  0  0  0  0  0  0  0  0
    2.1434   -5.3625    0.0000 C   0  0  0  0  0  0  0  0  0  0  0  0
    2.8579   -4.9500    0.0000 C   0  0  0  0  0  0  0  0  0  0  0  0
    3.5724   -5.3625    0.0000 C   0  0  0  0  0  0  0  0  0  0  0  0
    4.2868   -4.9500    0.0000 C   0  0  0  0  0  0  0  0  0  0  0  0
    5.0013   -5.3625    0.0000 C   0  0  0  0  0  0  0  0  0  0  0  0
    5.7158   -4.9500    0.0000 C   0  0  0  0  0  0  0  0  0  0  0  0
    6.4302   -5.3625    0.0000 O   0  0  0  0  0  0  0  0  0  0  0  0
    7.1447   -4.9500    0.0000 C   0  0  0  0  0  0  0  0  0  0  0  0
    7.1447   -4.1250    0.0000 O   0  0  0  0  0  0  0  0  0  0  0  0
    7.8592   -5.3625    0.0000 C   0  0  0  0  0  0  0  0  0  0  0  0
    8.5737   -4.9500    0.0000 C   0  0  0  0  0  0  0  0  0  0  0  0
    9.2881   -5.3625    0.0000 C   0  0  0  0  0  0  0  0  0  0  0  0
    9.2881   -6.1875    0.0000 C   0  0  0  0  0  0  0  0  0  0  0  0
   10.0026   -6.6000    0.0000 O   0  0  0  0  0  0  0  0  0  0  0  0
    8.5737   -6.6000    0.0000 C   0  0  0  0  0  0  0  0  0  0  0  0
    7.8592   -6.1875    0.0000 C   0  0  0  0  0  0  0  0  0  0  0  0
  1  2  1  0  0  0  0
  2  3  1  0  0  0  0
  3  4  1  0  0  0  0
  4  5  1  0  0  0  0
  5  6  1  0  0  0  0
  6  7  1  0  0  0  0
  7  8  1  0  0  0  0
  8  9  1  0  0  0  0
  9 10  2  0  0  0  0
  9 11  1  0  0  0  0
 11 12  4  0  0  0  0
 12 13  4  0  0  0  0
 13 14  4  0  0  0  0
 14 15  1  0  0  0  0
 14 16  4  0  0  0  0
 16 17  4  0  0  0  0
 11 17  4  0  0  0  0
M  END
> <activity>
103.0

> <InChiKey>
ZTJORNVITHUQJA-UHFFFAOYSA-N

$$$$

  Mrv2220 08292413132D          

 10  9  0  0  0  0            999 V2000
    2.4750    1.4289    0.0000 Cl  0  0  0  0  0  0  0  0  0  0  0  0
    2.0625    0.7145    0.0000 C   0  0  0  0  0  0  0  0  0  0  0  0
    2.4750    0.0000    0.0000 Cl  0  0  0  0  0  0  0  0  0  0  0  0
    1.2375    0.7145    0.0000 C   0  0  0  0  0  0  0  0  0  0  0  0
    0.8250    1.4289    0.0000 Cl  0  0  0  0  0  0  0  0  0  0  0  0
    0.8250    0.0000    0.0000 C   0  0  0  0  0  0  0  0  0  0  0  0
    1.2375   -0.7145    0.0000 Cl  0  0  0  0  0  0  0  0  0  0  0  0
    0.0000    0.0000    0.0000 C   0  0  0  0  0  0  0  0  0  0  0  0
   -0.4125   -0.7145    0.0000 Cl  0  0  0  0  0  0  0  0  0  0  0  0
   -0.4125    0.7145    0.0000 Cl  0  0  0  0  0  0  0  0  0  0  0  0
  1  2  1  0  0  0  0
  2  3  1  0  0  0  0
  2  4  2  0  0  0  0
  4  5  1  0  0  0  0
  4  6  1  0  0  0  0
  6  7  1  0  0  0  0
  6  8  2  0  0  0  0
  8  9  1  0  0  0  0
  8 10  1  0  0  0  0
M  END
> <activity>
98.9

> <InChiKey>
RWNKSTSCBHKHTB-UHFFFAOYSA-N

$$$$

  Mrv2220 08292413132D          

 11 11  0  0  0  0            999 V2000
   -0.3297   -0.8227    0.0000 Cl  0  0  0  0  0  0  0  0  0  0  0  0
    0.1553   -0.1553    0.0000 C   0  0  0  0  0  0  0  0  0  0  0  0
   -0.0997    0.6294    0.0000 C   0  0  0  0  0  0  0  0  0  0  0  0
   -0.8843    0.8843    0.0000 Cl  0  0  0  0  0  0  0  0  0  0  0  0
    0.5678    1.1143    0.0000 C   0  0  0  0  0  0  0  0  0  0  0  0
    0.0157    1.7274    0.0000 Cl  0  0  0  0  0  0  0  0  0  0  0  0
    1.1198    1.7274    0.0000 Cl  0  0  0  0  0  0  0  0  0  0  0  0
    1.2352    0.6294    0.0000 C   0  0  0  0  0  0  0  0  0  0  0  0
    2.0198    0.8843    0.0000 Cl  0  0  0  0  0  0  0  0  0  0  0  0
    0.9803   -0.1553    0.0000 C   0  0  0  0  0  0  0  0  0  0  0  0
    1.4652   -0.8227    0.0000 Cl  0  0  0  0  0  0  0  0  0  0  0  0
  1  2  1  0  0  0  0
  2  3  2  0  0  0  0
  3  4  1  0  0  0  0
  3  5  1  0  0  0  0
  5  6  1  0  0  0  0
  5  7  1  0  0  0  0
  5  8  1  0  0  0  0
  8  9  1  0  0  0  0
  8 10  2  0  0  0  0
  2 10  1  0  0  0  0
 10 11  1  0  0  0  0
M  END
> <activity>
98.4

> <InChiKey>
VUNCWTMEJYMOOR-UHFFFAOYSA-N

$$$$

  Mrv2220 08292413132D          

 20 21  0  0  0  0            999 V2000
    2.3155   -2.0494    0.0000 C   0  0  0  0  0  0  0  0  0  0  0  0
    1.4905   -2.0494    0.0000 C   0  0  0  0  0  0  0  0  0  0  0  0
    1.0780   -1.3349    0.0000 C   0  0  0  0  0  0  0  0  0  0  0  0
    0.2530   -1.3349    0.0000 C   0  0  0  0  0  0  0  0  0  0  0  0
   -0.1595   -0.6204    0.0000 C   0  0  0  0  0  0  0  0  0  0  0  0
    0.5550   -0.2079    0.0000 O   0  0  0  0  0  0  0  0  0  0  0  0
   -0.8739   -1.0329    0.0000 C   0  0  0  0  0  0  0  0  0  0  0  0
   -0.8739   -1.8579    0.0000 N   0  0  0  0  0  0  0  0  0  0  0  0
   -1.5414   -2.3429    0.0000 C   0  0  0  0  0  0  0  0  0  0  0  0
   -1.2864   -3.1275    0.0000 N   0  0  0  0  0  0  0  0  0  0  0  0
   -0.4614   -3.1275    0.0000 C   0  0  0  0  0  0  0  0  0  0  0  0
   -0.2065   -2.3429    0.0000 N   0  0  0  0  0  0  0  0  0  0  0  0
   -0.5720    0.0940    0.0000 C   0  0  0  0  0  0  0  0  0  0  0  0
   -1.3970    0.0940    0.0000 C   0  0  0  0  0  0  0  0  0  0  0  0
   -1.8095    0.8085    0.0000 C   0  0  0  0  0  0  0  0  0  0  0  0
   -1.3970    1.5230    0.0000 C   0  0  0  0  0  0  0  0  0  0  0  0
   -1.8095    2.2374    0.0000 Cl  0  0  0  0  0  0  0  0  0  0  0  0
   -0.5720    1.5230    0.0000 C   0  0  0  0  0  0  0  0  0  0  0  0
   -0.1595    0.8085    0.0000 C   0  0  0  0  0  0  0  0  0  0  0  0
    0.6655    0.8085    0.0000 Cl  0  0  0  0  0  0  0  0  0  0  0  0
  1  2  1  0  0  0  0
  2  3  1  0  0  0  0
  3  4  1  0  0  0  0
  4  5  1  0  0  0  0
  5  6  1  0  0  0  0
  5  7  1  0  0  0  0
  7  8  1  0  0  0  0
  8  9  4  0  0  0  0
  9 10  4  0  0  0  0
 10 11  4  0  0  0  0
 11 12  4  0  0  0  0
  8 12  4  0  0  0  0
  5 13  1  0  0  0  0
 13 14  4  0  0  0  0
 14 15  4  0  0  0  0
 15 16  4  0  0  0  0
 16 17  1  0  0  0  0
 16 18  4  0  0  0  0
 18 19  4  0  0  0  0
 13 19  4  0  0  0  0
 19 20  1  0  0  0  0
M  END
> <activity>
69.0

> <InChiKey>
STMIIPIFODONDC-UHFFFAOYSA-N

$$$$

  Mrv2220 08292413132D          

 16 15  0  0  0  0            999 V2000
    5.9961    4.2868    0.0000 C   0  0  0  0  0  0  0  0  0  0  0  0
    6.7105    4.6993    0.0000 C   0  0  0  0  0  0  0  0  0  0  0  0
    7.4250    4.2868    0.0000 C   0  0  0  0  0  0  0  0  0  0  0  0
    8.1395    4.6993    0.0000 C   0  0  0  0  0  0  0  0  0  0  0  0
    8.8539    4.2868    0.0000 C   0  0  0  0  0  0  0  0  0  0  0  0
    9.5684    4.6993    0.0000 C   0  0  0  0  0  0  0  0  0  0  0  0
   10.2829    4.2868    0.0000 C   0  0  0  0  0  0  0  0  0  0  0  0
   10.9974    4.6993    0.0000 C   0  0  0  0  0  0  0  0  0  0  0  0
   11.7118    4.2868    0.0000 C   0  0  0  0  0  0  0  0  0  0  0  0
   12.4263    4.6993    0.0000 C   0  0  0  0  0  0  0  0  0  0  0  0
   13.1408    4.2868    0.0000 C   0  0  0  0  0  0  0  0  0  0  0  0
   13.8552    4.6993    0.0000 C   0  0  0  0  0  0  0  0  0  0  0  0
   14.5697    4.2868    0.0000 C   0  0  0  0  0  0  0  0  0  0  0  0
   15.2842    4.6993    0.0000 C   0  0  0  0  0  0  0  0  0  0  0  0
   15.9987    4.2868    0.0000 C   0  0  0  0  0  0  0  0  0  0  0  0
   16.7131    4.6993    0.0000 C   0  0  0  0  0  0  0  0  0  0  0  0
  1  2  1  0  0  0  0
  2  3  1  0  0  0  0
  3  4  1  0  0  0  0
  4  5  1  0  0  0  0
  5  6  1  0  0  0  0
  6  7  1  0  0  0  0
  7  8  1  0  0  0  0
  8  9  1  0  0  0  0
  9 10  1  0  0  0  0
 10 11  1  0  0  0  0
 11 12  1  0  0  0  0
 12 13  1  0  0  0  0
 13 14  1  0  0  0  0
 14 15  1  0  0  0  0
 15 16  1  0  0  0  0
M  END
> <activity>
10.1

> <InChiKey>
DCAYPVUWAIABOU-UHFFFAOYSA-N

$$$$

  Mrv2220 08292413132D          

 18 17  0  0  0  0            999 V2000
    7.9480    5.4138    0.0000 C   0  0  0  0  0  0  0  0  0  0  0  0
    8.6625    5.0013    0.0000 C   0  0  0  0  0  0  0  0  0  0  0  0
    9.3770    5.4138    0.0000 C   0  0  0  0  0  0  0  0  0  0  0  0
   10.0914    5.0013    0.0000 C   0  0  0  0  0  0  0  0  0  0  0  0
   10.8059    5.4138    0.0000 C   0  0  0  0  0  0  0  0  0  0  0  0
   11.5204    5.0013    0.0000 C   0  0  0  0  0  0  0  0  0  0  0  0
   12.2349    5.4138    0.0000 C   0  0  0  0  0  0  0  0  0  0  0  0
   12.9493    5.0013    0.0000 C   0  0  0  0  0  0  0  0  0  0  0  0
   13.6638    5.4138    0.0000 C   0  0  0  0  0  0  0  0  0  0  0  0
   14.3783    5.0013    0.0000 C   0  0  0  0  0  0  0  0  0  0  0  0
   15.0927    5.4138    0.0000 C   0  0  0  0  0  0  0  0  0  0  0  0
   15.8072    5.0013    0.0000 C   0  0  0  0  0  0  0  0  0  0  0  0
   16.5217    5.4138    0.0000 C   0  0  0  0  0  0  0  0  0  0  0  0
   17.2362    5.0013    0.0000 C   0  0  0  0  0  0  0  0  0  0  0  0
   17.9506    5.4138    0.0000 C   0  0  0  0  0  0  0  0  0  0  0  0
   18.6651    5.0013    0.0000 C   0  0  0  0  0  0  0  0  0  0  0  0
   19.3796    5.4138    0.0000 O   0  0  0  0  0  0  0  0  0  0  0  0
   18.6651    4.1763    0.0000 O   0  0  0  0  0  0  0  0  0  0  0  0
  1  2  1  0  0  0  0
  2  3  1  0  0  0  0
  3  4  1  0  0  0  0
  4  5  1  0  0  0  0
  5  6  1  0  0  0  0
  6  7  1  0  0  0  0
  7  8  1  0  0  0  0
  8  9  1  0  0  0  0
  9 10  1  0  0  0  0
 10 11  1  0  0  0  0
 11 12  1  0  0  0  0
 12 13  1  0  0  0  0
 13 14  1  0  0  0  0
 14 15  1  0  0  0  0
 15 16  1  0  0  0  0
 16 17  2  0  0  0  0
 16 18  1  0  0  0  0
M  END
> <activity>
53.4

> <InChiKey>
IPCSVZSSVZVIGE-UHFFFAOYSA-N

$$$$

  Mrv2220 08292413132D          

 29 30  0  0  0  0            999 V2000
    2.1434   -3.7125    0.0000 O   0  0  0  0  0  0  0  0  0  0  0  0
    2.1434   -2.8875    0.0000 C   0  0  0  0  0  0  0  0  0  0  0  0
    1.4289   -2.4750    0.0000 N   0  0  0  0  0  0  0  0  0  0  0  0
    0.7145   -2.8875    0.0000 C   0  0  0  0  0  0  0  0  0  0  0  0
    0.7145   -3.7125    0.0000 O   0  0  0  0  0  0  0  0  0  0  0  0
    0.0000   -2.4750    0.0000 C   0  0  0  0  0  0  0  0  0  0  0  0
   -0.7145   -2.8875    0.0000 C   0  0  0  0  0  0  0  0  0  0  0  0
   -0.7145   -3.7125    0.0000 F   0  0  0  0  0  0  0  0  0  0  0  0
   -1.4289   -2.4750    0.0000 C   0  0  0  0  0  0  0  0  0  0  0  0
   -1.4289   -1.6500    0.0000 C   0  0  0  0  0  0  0  0  0  0  0  0
   -0.7145   -1.2375    0.0000 C   0  0  0  0  0  0  0  0  0  0  0  0
    0.0000   -1.6500    0.0000 C   0  0  0  0  0  0  0  0  0  0  0  0
    0.7145   -1.2375    0.0000 F   0  0  0  0  0  0  0  0  0  0  0  0
    2.8579   -2.4750    0.0000 N   0  0  0  0  0  0  0  0  0  0  0  0
    3.5724   -2.8875    0.0000 C   0  0  0  0  0  0  0  0  0  0  0  0
    4.2868   -2.4750    0.0000 C   0  0  0  0  0  0  0  0  0  0  0  0
    5.0013   -2.8875    0.0000 C   0  0  0  0  0  0  0  0  0  0  0  0
    5.7158   -2.4750    0.0000 Cl  0  0  0  0  0  0  0  0  0  0  0  0
    5.0013   -3.7125    0.0000 C   0  0  0  0  0  0  0  0  0  0  0  0
    5.7158   -4.1250    0.0000 O   0  0  0  0  0  0  0  0  0  0  0  0
    5.7158   -4.9500    0.0000 C   0  0  0  0  0  0  0  0  0  0  0  0
    4.8908   -4.9500    0.0000 F   0  0  0  0  0  0  0  0  0  0  0  0
    6.5408   -4.9500    0.0000 F   0  0  0  0  0  0  0  0  0  0  0  0
    5.7158   -5.7750    0.0000 C   0  0  0  0  0  0  0  0  0  0  0  0
    6.4302   -6.1875    0.0000 F   0  0  0  0  0  0  0  0  0  0  0  0
    5.0013   -6.1875    0.0000 F   0  0  0  0  0  0  0  0  0  0  0  0
    4.2868   -4.1250    0.0000 C   0  0  0  0  0  0  0  0  0  0  0  0
    4.2868   -4.9500    0.0000 Cl  0  0  0  0  0  0  0  0  0  0  0  0
    3.5724   -3.7125    0.0000 C   0  0  0  0  0  0  0  0  0  0  0  0
  1  2  2  0  0  0  0
  2  3  1  0  0  0  0
  3  4  1  0  0  0  0
  4  5  2  0  0  0  0
  4  6  1  0  0  0  0
  6  7  4  0  0  0  0
  7  8  1  0  0  0  0
  7  9  4  0  0  0  0
  9 10  4  0  0  0  0
 10 11  4  0  0  0  0
 11 12  4  0  0  0  0
  6 12  4  0  0  0  0
 12 13  1  0  0  0  0
  2 14  1  0  0  0  0
 14 15  1  0  0  0  0
 15 16  4  0  0  0  0
 16 17  4  0  0  0  0
 17 18  1  0  0  0  0
 17 19  4  0  0  0  0
 19 20  1  0  0  0  0
 20 21  1  0  0  0  0
 21 22  1  0  0  0  0
 21 23  1  0  0  0  0
 21 24  1  0  0  0  0
 24 25  1  0  0  0  0
 24 26  1  0  0  0  0
 19 27  4  0  0  0  0
 27 28  1  0  0  0  0
 27 29  4  0  0  0  0
 15 29  4  0  0  0  0
M  END
> <activity>
-18.9

> <InChiKey>
RGNPBRKPHBKNKX-UHFFFAOYSA-N

$$$$

  Mrv2220 08292413132D          

 24 25  0  0  0  0            999 V2000
    0.7145   -2.8875    0.0000 O   0  0  0  0  0  0  0  0  0  0  0  0
    0.7145   -2.0625    0.0000 C   0  0  0  0  0  0  0  0  0  0  0  0
    1.4289   -1.6500    0.0000 O   0  0  0  0  0  0  0  0  0  0  0  0
    2.1434   -2.0625    0.0000 C   0  0  0  0  0  0  0  0  0  0  0  0
    2.8579   -1.6500    0.0000 C   0  0  0  0  0  0  0  0  0  0  0  0
    3.5724   -2.0625    0.0000 C   0  0  0  0  0  0  0  0  0  0  0  0
    4.2868   -1.6500    0.0000 C   0  0  0  0  0  0  0  0  0  0  0  0
    5.0013   -2.0625    0.0000 C   0  0  0  0  0  0  0  0  0  0  0  0
    5.7158   -1.6500    0.0000 C   0  0  0  0  0  0  0  0  0  0  0  0
    6.4302   -2.0625    0.0000 O   0  0  0  0  0  0  0  0  0  0  0  0
    7.1447   -1.6500    0.0000 C   0  0  0  0  0  0  0  0  0  0  0  0
    7.1447   -0.8250    0.0000 O   0  0  0  0  0  0  0  0  0  0  0  0
    7.8592   -2.0625    0.0000 C   0  0  0  0  0  0  0  0  0  0  0  0
    8.5737   -1.6500    0.0000 C   0  0  0  0  0  0  0  0  0  0  0  0
    9.2881   -2.0625    0.0000 C   0  0  0  0  0  0  0  0  0  0  0  0
    9.2881   -2.8875    0.0000 C   0  0  0  0  0  0  0  0  0  0  0  0
    8.5737   -3.3000    0.0000 C   0  0  0  0  0  0  0  0  0  0  0  0
    7.8592   -2.8875    0.0000 C   0  0  0  0  0  0  0  0  0  0  0  0
    0.0000   -1.6500    0.0000 C   0  0  0  0  0  0  0  0  0  0  0  0
   -0.7145   -2.0625    0.0000 C   0  0  0  0  0  0  0  0  0  0  0  0
   -1.4289   -1.6500    0.0000 C   0  0  0  0  0  0  0  0  0  0  0  0
   -1.4289   -0.8250    0.0000 C   0  0  0  0  0  0  0  0  0  0  0  0
   -0.7145   -0.4125    0.0000 C   0  0  0  0  0  0  0  0  0  0  0  0
    0.0000   -0.8250    0.0000 C   0  0  0  0  0  0  0  0  0  0  0  0
  1  2  2  0  0  0  0
  2  3  1  0  0  0  0
  3  4  1  0  0  0  0
  4  5  1  0  0  0  0
  5  6  1  0  0  0  0
  6  7  1  0  0  0  0
  7  8  1  0  0  0  0
  8  9  1  0  0  0  0
  9 10  1  0  0  0  0
 10 11  1  0  0  0  0
 11 12  2  0  0  0  0
 11 13  1  0  0  0  0
 13 14  4  0  0  0  0
 14 15  4  0  0  0  0
 15 16  4  0  0  0  0
 16 17  4  0  0  0  0
 17 18  4  0  0  0  0
 13 18  4  0  0  0  0
  2 19  1  0  0  0  0
 19 20  4  0  0  0  0
 20 21  4  0  0  0  0
 21 22  4  0  0  0  0
 22 23  4  0  0  0  0
 23 24  4  0  0  0  0
 19 24  4  0  0  0  0
M  END
> <activity>
26.8

> <InChiKey>
TYTTZVDFWCBYPG-UHFFFAOYSA-N

$$$$

  Mrv2220 08292413132D          

  8  7  0  0  0  0            999 V2000
    1.0461   -2.2539    0.0000 N   0  0  0  0  0  0  0  0  0  0  0  0
    1.7605   -1.8414    0.0000 C   0  0  0  0  0  0  0  0  0  0  0  0
    2.4750   -1.4289    0.0000 C   0  0  0  0  0  0  0  0  0  0  0  0
    3.1895   -1.8414    0.0000 C   0  0  0  0  0  0  0  0  0  0  0  0
    3.9039   -1.4289    0.0000 C   0  0  0  0  0  0  0  0  0  0  0  0
    4.6184   -1.8414    0.0000 C   0  0  0  0  0  0  0  0  0  0  0  0
    5.3329   -1.4289    0.0000 C   0  0  0  0  0  0  0  0  0  0  0  0
    6.0474   -1.0164    0.0000 N   0  0  0  0  0  0  0  0  0  0  0  0
  1  2  3  0  0  0  0
  2  3  1  0  0  0  0
  3  4  1  0  0  0  0
  4  5  1  0  0  0  0
  5  6  1  0  0  0  0
  6  7  1  0  0  0  0
  7  8  3  0  0  0  0
M  END
> <activity>
15.9

> <InChiKey>
BTGRAWJCKBQKAO-UHFFFAOYSA-N

$$$$

  Mrv2220 08292413132D          

 10  9  0  0  0  0            999 V2000
    1.0461    1.4289    0.0000 O   0  0  0  0  0  0  0  0  0  0  0  0
    1.7605    1.8414    0.0000 C   0  0  0  0  0  0  0  0  0  0  0  0
    1.7605    2.6664    0.0000 O   0  0  0  0  0  0  0  0  0  0  0  0
    2.4750    1.4289    0.0000 C   0  0  0  0  0  0  0  0  0  0  0  0
    3.1895    1.8414    0.0000 C   0  0  0  0  0  0  0  0  0  0  0  0
    3.9039    1.4289    0.0000 C   0  0  0  0  0  0  0  0  0  0  0  0
    4.6184    1.8414    0.0000 C   0  0  0  0  0  0  0  0  0  0  0  0
    5.3329    1.4289    0.0000 C   0  0  0  0  0  0  0  0  0  0  0  0
    6.0474    1.8414    0.0000 O   0  0  0  0  0  0  0  0  0  0  0  0
    5.3329    0.6039    0.0000 O   0  0  0  0  0  0  0  0  0  0  0  0
  1  2  2  0  0  0  0
  2  3  1  0  0  0  0
  2  4  1  0  0  0  0
  4  5  1  0  0  0  0
  5  6  1  0  0  0  0
  6  7  1  0  0  0  0
  7  8  1  0  0  0  0
  8  9  2  0  0  0  0
  8 10  1  0  0  0  0
M  END
> <activity>
13.8

> <InChiKey>
WNLRTRBMVRJNCN-UHFFFAOYSA-N

$$$$

  Mrv2220 08292413132D          

 26 25  0  0  0  0            999 V2000
   10.9461    7.1447    0.0000 C   0  0  0  0  0  0  0  0  0  0  0  0
   11.6605    7.5572    0.0000 C   0  0  0  0  0  0  0  0  0  0  0  0
   12.3750    7.1447    0.0000 C   0  0  0  0  0  0  0  0  0  0  0  0
   13.0895    7.5572    0.0000 C   0  0  0  0  0  0  0  0  0  0  0  0
   13.8039    7.1447    0.0000 C   0  0  0  0  0  0  0  0  0  0  0  0
   14.5184    7.5572    0.0000 C   0  0  0  0  0  0  0  0  0  0  0  0
   15.2329    7.1447    0.0000 C   0  0  0  0  0  0  0  0  0  0  0  0
   15.9474    7.5572    0.0000 C   0  0  0  0  0  0  0  0  0  0  0  0
   16.6618    7.1447    0.0000 C   0  0  0  0  0  0  0  0  0  0  0  0
   17.3763    7.5572    0.0000 O   0  0  0  0  0  0  0  0  0  0  0  0
   18.0908    7.1447    0.0000 C   0  0  0  0  0  0  0  0  0  0  0  0
   18.0908    6.3197    0.0000 O   0  0  0  0  0  0  0  0  0  0  0  0
   18.8052    7.5572    0.0000 C   0  0  0  0  0  0  0  0  0  0  0  0
   19.5197    7.1447    0.0000 C   0  0  0  0  0  0  0  0  0  0  0  0
   20.2342    7.5572    0.0000 C   0  0  0  0  0  0  0  0  0  0  0  0
   20.9487    7.1447    0.0000 C   0  0  0  0  0  0  0  0  0  0  0  0
   21.6631    7.5572    0.0000 C   0  0  0  0  0  0  0  0  0  0  0  0
   21.6631    8.3822    0.0000 O   0  0  0  0  0  0  0  0  0  0  0  0
   22.3776    7.1447    0.0000 O   0  0  0  0  0  0  0  0  0  0  0  0
   23.0921    7.5572    0.0000 C   0  0  0  0  0  0  0  0  0  0  0  0
   23.8065    7.1447    0.0000 C   0  0  0  0  0  0  0  0  0  0  0  0
   24.5210    7.5572    0.0000 C   0  0  0  0  0  0  0  0  0  0  0  0
   25.2355    7.1447    0.0000 C   0  0  0  0  0  0  0  0  0  0  0  0
   25.9499    7.5572    0.0000 C   0  0  0  0  0  0  0  0  0  0  0  0
   26.6644    7.1447    0.0000 C   0  0  0  0  0  0  0  0  0  0  0  0
   27.3789    7.5572    0.0000 C   0  0  0  0  0  0  0  0  0  0  0  0
  1  2  1  0  0  0  0
  2  3  1  0  0  0  0
  3  4  1  0  0  0  0
  4  5  1  0  0  0  0
  5  6  1  0  0  0  0
  6  7  1  0  0  0  0
  7  8  1  0  0  0  0
  8  9  1  0  0  0  0
  9 10  1  0  0  0  0
 10 11  1  0  0  0  0
 11 12  2  0  0  0  0
 11 13  1  0  0  0  0
 13 14  1  0  0  0  0
 14 15  1  0  0  0  0
 15 16  1  0  0  0  0
 16 17  1  0  0  0  0
 17 18  2  0  0  0  0
 17 19  1  0  0  0  0
 19 20  1  0  0  0  0
 20 21  1  0  0  0  0
 21 22  1  0  0  0  0
 22 23  1  0  0  0  0
 23 24  1  0  0  0  0
 24 25  1  0  0  0  0
 25 26  1  0  0  0  0
M  END
> <activity>
11.6

> <InChiKey>
DLZBUNUDESZERL-UHFFFAOYSA-N

$$$$

  Mrv2220 08292413132D          

  8  7  0  0  0  0            999 V2000
    1.7605    1.8414    0.0000 C   0  0  0  0  0  0  0  0  0  0  0  0
    2.4750    1.4289    0.0000 C   0  0  0  0  0  0  0  0  0  0  0  0
    3.1895    1.8414    0.0000 C   0  0  0  0  0  0  0  0  0  0  0  0
    3.9039    1.4289    0.0000 C   0  0  0  0  0  0  0  0  0  0  0  0
    4.6184    1.8414    0.0000 C   0  0  0  0  0  0  0  0  0  0  0  0
    5.3329    1.4289    0.0000 C   0  0  0  0  0  0  0  0  0  0  0  0
    6.0474    1.8414    0.0000 O   0  0  0  0  0  0  0  0  0  0  0  0
    5.3329    0.6039    0.0000 O   0  0  0  0  0  0  0  0  0  0  0  0
  1  2  1  0  0  0  0
  2  3  1  0  0  0  0
  3  4  1  0  0  0  0
  4  5  1  0  0  0  0
  5  6  1  0  0  0  0
  6  7  2  0  0  0  0
  6  8  1  0  0  0  0
M  END
> <activity>
11.2

> <InChiKey>
FUZZWVXGSFPDMH-UHFFFAOYSA-N

$$$$

  Mrv2220 08292413132D          

 18 19  0  0  0  0            999 V2000
    0.0000    0.0000    0.0000 C   0  0  0  0  0  0  0  0  0  0  0  0
    0.7145   -0.4125    0.0000 N   0  0  0  0  0  0  0  0  0  0  0  0
    1.4289    0.0000    0.0000 C   0  0  0  0  0  0  0  0  0  0  0  0
    0.7145   -1.2375    0.0000 C   0  0  0  0  0  0  0  0  0  0  0  0
    1.4289   -1.6500    0.0000 N   0  0  0  0  0  0  0  0  0  0  0  0
    1.4289   -2.4750    0.0000 C   0  0  0  0  0  0  0  0  0  0  0  0
    2.1434   -2.8875    0.0000 O   0  0  0  0  0  0  0  0  0  0  0  0
    0.7145   -2.8875    0.0000 N   0  0  0  0  0  0  0  0  0  0  0  0
    0.7145   -3.7125    0.0000 C   0  0  0  0  0  0  0  0  0  0  0  0
    1.4289   -4.1250    0.0000 C   0  0  0  0  0  0  0  0  0  0  0  0
    1.4289   -4.9500    0.0000 C   0  0  0  0  0  0  0  0  0  0  0  0
    0.7145   -5.3625    0.0000 C   0  0  0  0  0  0  0  0  0  0  0  0
    0.0000   -4.9500    0.0000 C   0  0  0  0  0  0  0  0  0  0  0  0
    0.0000   -4.1250    0.0000 C   0  0  0  0  0  0  0  0  0  0  0  0
    0.0000   -2.4750    0.0000 C   0  0  0  0  0  0  0  0  0  0  0  0
   -0.7145   -2.8875    0.0000 O   0  0  0  0  0  0  0  0  0  0  0  0
    0.0000   -1.6500    0.0000 N   0  0  0  0  0  0  0  0  0  0  0  0
   -0.7145   -1.2375    0.0000 C   0  0  0  0  0  0  0  0  0  0  0  0
  1  2  1  0  0  0  0
  2  3  1  0  0  0  0
  2  4  1  0  0  0  0
  4  5  4  0  0  0  0
  5  6  4  0  0  0  0
  6  7  2  0  0  0  0
  6  8  4  0  0  0  0
  8  9  1  0  0  0  0
  9 10  1  0  0  0  0
 10 11  1  0  0  0  0
 11 12  1  0  0  0  0
 12 13  1  0  0  0  0
 13 14  1  0  0  0  0
  9 14  1  0  0  0  0
  8 15  4  0  0  0  0
 15 16  2  0  0  0  0
 15 17  4  0  0  0  0
  4 17  4  0  0  0  0
 17 18  1  0  0  0  0
M  END
> <activity>
21.6

> <InChiKey>
CAWXEEYDBZRFPE-UHFFFAOYSA-N

$$$$

  Mrv2220 08292413132D          

 15 15  0  0  0  0            999 V2000
    2.1434   -5.3625    0.0000 C   0  0  0  0  0  0  0  0  0  0  0  0
    2.8579   -4.9500    0.0000 C   0  0  0  0  0  0  0  0  0  0  0  0
    3.5724   -5.3625    0.0000 C   0  0  0  0  0  0  0  0  0  0  0  0
    4.2868   -4.9500    0.0000 C   0  0  0  0  0  0  0  0  0  0  0  0
    5.0013   -5.3625    0.0000 C   0  0  0  0  0  0  0  0  0  0  0  0
    5.7158   -4.9500    0.0000 C   0  0  0  0  0  0  0  0  0  0  0  0
    6.4302   -5.3625    0.0000 O   0  0  0  0  0  0  0  0  0  0  0  0
    7.1447   -4.9500    0.0000 C   0  0  0  0  0  0  0  0  0  0  0  0
    7.1447   -4.1250    0.0000 O   0  0  0  0  0  0  0  0  0  0  0  0
    7.8592   -5.3625    0.0000 C   0  0  0  0  0  0  0  0  0  0  0  0
    8.5737   -4.9500    0.0000 C   0  0  0  0  0  0  0  0  0  0  0  0
    9.2881   -5.3625    0.0000 C   0  0  0  0  0  0  0  0  0  0  0  0
    9.2881   -6.1875    0.0000 C   0  0  0  0  0  0  0  0  0  0  0  0
    8.5737   -6.6000    0.0000 C   0  0  0  0  0  0  0  0  0  0  0  0
    7.8592   -6.1875    0.0000 C   0  0  0  0  0  0  0  0  0  0  0  0
  1  2  1  0  0  0  0
  2  3  1  0  0  0  0
  3  4  1  0  0  0  0
  4  5  1  0  0  0  0
  5  6  1  0  0  0  0
  6  7  1  0  0  0  0
  7  8  1  0  0  0  0
  8  9  2  0  0  0  0
  8 10  1  0  0  0  0
 10 11  4  0  0  0  0
 11 12  4  0  0  0  0
 12 13  4  0  0  0  0
 13 14  4  0  0  0  0
 14 15  4  0  0  0  0
 10 15  4  0  0  0  0
M  END
> <activity>
51.2

> <InChiKey>
UUGLJVMIFJNVFH-UHFFFAOYSA-N

$$$$

  Mrv2220 08292413132D          

 23 25  0  0  0  0            999 V2000
    1.4289   -1.6500    0.0000 C   0  0  0  0  0  0  0  0  0  0  0  0
    1.4289   -2.4750    0.0000 C   0  0  0  0  0  0  0  0  0  0  0  0
    2.0964   -2.9599    0.0000 C   0  0  0  0  0  0  0  0  0  0  0  0
    2.8810   -2.7050    0.0000 C   0  0  0  0  0  0  0  0  0  0  0  0
    3.0525   -1.8980    0.0000 C   0  0  0  0  0  0  0  0  0  0  0  0
    3.8372   -1.6431    0.0000 C   0  0  0  0  0  0  0  0  0  0  0  0
    4.4502   -2.1951    0.0000 C   0  0  0  0  0  0  0  0  0  0  0  0
    5.2349   -1.9402    0.0000 Cl  0  0  0  0  0  0  0  0  0  0  0  0
    4.2787   -3.0021    0.0000 C   0  0  0  0  0  0  0  0  0  0  0  0
    3.4941   -3.2570    0.0000 C   0  0  0  0  0  0  0  0  0  0  0  0
    1.8414   -3.7445    0.0000 S   0  0  0  0  0  0  0  0  0  0  0  0
    1.0164   -3.7445    0.0000 C   0  0  0  0  0  0  0  0  0  0  0  0
    0.5315   -4.4120    0.0000 O   0  0  0  0  0  0  0  0  0  0  0  0
    0.7615   -2.9599    0.0000 N   0  0  0  0  0  0  0  0  0  0  0  0
   -0.0231   -2.7050    0.0000 C   0  0  0  0  0  0  0  0  0  0  0  0
   -0.1946   -1.8980    0.0000 O   0  0  0  0  0  0  0  0  0  0  0  0
   -0.6362   -3.2570    0.0000 N   0  0  0  0  0  0  0  0  0  0  0  0
   -1.4208   -3.0021    0.0000 C   0  0  0  0  0  0  0  0  0  0  0  0
   -2.0339   -3.5541    0.0000 C   0  0  0  0  0  0  0  0  0  0  0  0
   -2.8186   -3.2992    0.0000 C   0  0  0  0  0  0  0  0  0  0  0  0
   -2.9901   -2.4922    0.0000 C   0  0  0  0  0  0  0  0  0  0  0  0
   -2.3770   -1.9402    0.0000 C   0  0  0  0  0  0  0  0  0  0  0  0
   -1.5924   -2.1951    0.0000 C   0  0  0  0  0  0  0  0  0  0  0  0
  1  2  1  0  0  0  0
  2  3  1  0  0  0  0
  3  4  1  0  0  0  0
  4  5  4  0  0  0  0
  5  6  4  0  0  0  0
  6  7  4  0  0  0  0
  7  8  1  0  0  0  0
  7  9  4  0  0  0  0
  9 10  4  0  0  0  0
  4 10  4  0  0  0  0
  3 11  1  0  0  0  0
 11 12  1  0  0  0  0
 12 13  2  0  0  0  0
 12 14  1  0  0  0  0
  2 14  1  0  0  0  0
 14 15  1  0  0  0  0
 15 16  2  0  0  0  0
 15 17  1  0  0  0  0
 17 18  1  0  0  0  0
 18 19  1  0  0  0  0
 19 20  1  0  0  0  0
 20 21  1  0  0  0  0
 21 22  1  0  0  0  0
 22 23  1  0  0  0  0
 18 23  1  0  0  0  0
M  END
> <activity>
56.4

> <InChiKey>
XGWIJUOSCAQSSV-UHFFFAOYSA-N

$$$$

  Mrv2220 08292413132D          

 17 18  0  0  0  0            999 V2000
   -2.1434   -2.0625    0.0000 N   0  0  0  0  0  0  0  0  0  0  0  0
   -1.4289   -1.6500    0.0000 S   0  0  0  0  0  0  0  0  0  0  0  0
   -1.0164   -2.3645    0.0000 O   0  0  0  0  0  0  0  0  0  0  0  0
   -1.8414   -0.9355    0.0000 O   0  0  0  0  0  0  0  0  0  0  0  0
   -0.7145   -1.2375    0.0000 C   0  0  0  0  0  0  0  0  0  0  0  0
    0.0000   -1.6500    0.0000 C   0  0  0  0  0  0  0  0  0  0  0  0
    0.7145   -1.2375    0.0000 C   0  0  0  0  0  0  0  0  0  0  0  0
    0.7145   -0.4125    0.0000 C   0  0  0  0  0  0  0  0  0  0  0  0
    0.0000   -0.0000    0.0000 C   0  0  0  0  0  0  0  0  0  0  0  0
   -0.7145   -0.4125    0.0000 C   0  0  0  0  0  0  0  0  0  0  0  0
   -1.4289   -0.0000    0.0000 Cl  0  0  0  0  0  0  0  0  0  0  0  0
    1.4289   -0.0000    0.0000 N   0  0  0  0  0  0  0  0  0  0  0  0
    2.1434   -0.4125    0.0000 C   0  0  0  0  0  0  0  0  0  0  0  0
    2.1434   -1.2375    0.0000 N   0  0  0  0  0  0  0  0  0  0  0  0
    1.4289   -1.6500    0.0000 S   0  0  0  0  0  0  0  0  0  0  0  0
    1.8163   -2.3784    0.0000 O   0  0  0  0  0  0  0  0  0  0  0  0
    1.0416   -2.3784    0.0000 O   0  0  0  0  0  0  0  0  0  0  0  0
  1  2  1  0  0  0  0
  2  3  2  0  0  0  0
  2  4  2  0  0  0  0
  2  5  1  0  0  0  0
  5  6  4  0  0  0  0
  6  7  4  0  0  0  0
  7  8  4  0  0  0  0
  8  9  4  0  0  0  0
  9 10  4  0  0  0  0
  5 10  4  0  0  0  0
 10 11  1  0  0  0  0
  8 12  1  0  0  0  0
 12 13  1  0  0  0  0
 13 14  1  0  0  0  0
 14 15  1  0  0  0  0
  7 15  1  0  0  0  0
 15 16  2  0  0  0  0
 15 17  2  0  0  0  0
M  END
> <activity>
-6.7

> <InChiKey>
JZUFKLXOESDKRF-UHFFFAOYSA-N

$$$$

  Mrv2220 08292413132D          

  8  8  0  0  0  0            999 V2000
    0.7145    2.0625    0.0000 O   0  0  0  0  0  0  0  0  0  0  0  0
    0.7145    1.2375    0.0000 C   0  0  0  0  0  0  0  0  0  0  0  0
    1.4289    0.8250    0.0000 C   0  0  0  0  0  0  0  0  0  0  0  0
    1.4289   -0.0000    0.0000 C   0  0  0  0  0  0  0  0  0  0  0  0
    0.7145   -0.4125    0.0000 C   0  0  0  0  0  0  0  0  0  0  0  0
    0.7145   -1.2375    0.0000 O   0  0  0  0  0  0  0  0  0  0  0  0
    0.0000    0.0000    0.0000 C   0  0  0  0  0  0  0  0  0  0  0  0
    0.0000    0.8250    0.0000 C   0  0  0  0  0  0  0  0  0  0  0  0
  1  2  1  0  0  0  0
  2  3  4  0  0  0  0
  3  4  4  0  0  0  0
  4  5  4  0  0  0  0
  5  6  1  0  0  0  0
  5  7  4  0  0  0  0
  7  8  4  0  0  0  0
  2  8  4  0  0  0  0
M  END
> <activity>
19.9

> <InChiKey>
QIGBRXMKCJKVMJ-UHFFFAOYSA-N

$$$$

  Mrv2220 08292413132D          

 10 10  0  0  0  0            999 V2000
    0.0000    2.4750    0.0000 C   0  0  0  0  0  0  0  0  0  0  0  0
    0.7145    2.0625    0.0000 O   0  0  0  0  0  0  0  0  0  0  0  0
    0.7145    1.2375    0.0000 C   0  0  0  0  0  0  0  0  0  0  0  0
    1.4289    0.8250    0.0000 C   0  0  0  0  0  0  0  0  0  0  0  0
    1.4289   -0.0000    0.0000 C   0  0  0  0  0  0  0  0  0  0  0  0
    0.7145   -0.4125    0.0000 C   0  0  0  0  0  0  0  0  0  0  0  0
    0.7145   -1.2375    0.0000 O   0  0  0  0  0  0  0  0  0  0  0  0
    1.4289   -1.6500    0.0000 C   0  0  0  0  0  0  0  0  0  0  0  0
    0.0000    0.0000    0.0000 C   0  0  0  0  0  0  0  0  0  0  0  0
    0.0000    0.8250    0.0000 C   0  0  0  0  0  0  0  0  0  0  0  0
  1  2  1  0  0  0  0
  2  3  1  0  0  0  0
  3  4  4  0  0  0  0
  4  5  4  0  0  0  0
  5  6  4  0  0  0  0
  6  7  1  0  0  0  0
  7  8  1  0  0  0  0
  6  9  4  0  0  0  0
  9 10  4  0  0  0  0
  3 10  4  0  0  0  0
M  END
> <activity>
19.2

> <InChiKey>
OHBQPCCCRFSCAX-UHFFFAOYSA-N

$$$$

  Mrv2220 08292413132D          

 12 11  0  0  0  0            999 V2000
    1.9520    1.9520    0.0000 C   0  0  0  0  0  0  0  0  0  0  0  0
    1.9520    1.1270    0.0000 C   0  0  0  0  0  0  0  0  0  0  0  0
    1.2375    0.7145    0.0000 C   0  0  0  0  0  0  0  0  0  0  0  0
    0.5230    1.1270    0.0000 C   0  0  0  0  0  0  0  0  0  0  0  0
   -0.1914    0.7145    0.0000 O   0  0  0  0  0  0  0  0  0  0  0  0
    2.6664    0.7145    0.0000 C   0  0  0  0  0  0  0  0  0  0  0  0
    3.3809    1.1270    0.0000 C   0  0  0  0  0  0  0  0  0  0  0  0
    4.0954    0.7145    0.0000 C   0  0  0  0  0  0  0  0  0  0  0  0
    4.8099    1.1270    0.0000 C   0  0  0  0  0  0  0  0  0  0  0  0
    5.5243    1.5395    0.0000 C   0  0  0  0  0  0  0  0  0  0  0  0
    5.2224    0.4125    0.0000 C   0  0  0  0  0  0  0  0  0  0  0  0
    4.3974    1.8414    0.0000 O   0  0  0  0  0  0  0  0  0  0  0  0
  1  2  1  0  0  0  0
  2  3  1  0  0  0  0
  3  4  1  0  0  0  0
  4  5  2  0  0  0  0
  2  6  1  0  0  0  0
  6  7  1  0  0  0  0
  7  8  1  0  0  0  0
  8  9  1  0  0  0  0
  9 10  1  0  0  0  0
  9 11  1  0  0  0  0
  9 12  1  0  0  0  0
M  END
> <activity>
28.7

> <InChiKey>
WPFVBOQKRVRMJB-UHFFFAOYSA-N

$$$$

  Mrv2220 08292413132D          

 20 20  0  0  0  0            999 V2000
    0.0000    4.1250    0.0000 C   0  0  0  0  0  0  0  0  0  0  0  0
    0.0000    3.3000    0.0000 C   0  0  0  0  0  0  0  0  0  0  0  0
   -0.8250    3.3000    0.0000 C   0  0  0  0  0  0  0  0  0  0  0  0
    0.8250    3.3000    0.0000 O   0  0  0  0  0  0  0  0  0  0  0  0
    0.0000    2.4750    0.0000 C   0  0  0  0  0  0  0  0  0  0  0  0
   -0.7145    2.0625    0.0000 O   0  0  0  0  0  0  0  0  0  0  0  0
    0.7145    2.0625    0.0000 N   0  0  0  0  0  0  0  0  0  0  0  0
    0.7145    1.2375    0.0000 C   0  0  0  0  0  0  0  0  0  0  0  0
    1.4289    0.8250    0.0000 C   0  0  0  0  0  0  0  0  0  0  0  0
    1.4289   -0.0000    0.0000 C   0  0  0  0  0  0  0  0  0  0  0  0
    0.7145   -0.4125    0.0000 C   0  0  0  0  0  0  0  0  0  0  0  0
    0.7145   -1.2375    0.0000 N   0  3  0  0  0  0  0  0  0  0  0  0
    1.4289   -1.6500    0.0000 O   0  0  0  0  0  0  0  0  0  0  0  0
   -0.0000   -1.6500    0.0000 O   0  5  0  0  0  0  0  0  0  0  0  0
    0.0000    0.0000    0.0000 C   0  0  0  0  0  0  0  0  0  0  0  0
   -0.7145   -0.4125    0.0000 C   0  0  0  0  0  0  0  0  0  0  0  0
   -1.4289   -0.8250    0.0000 F   0  0  0  0  0  0  0  0  0  0  0  0
   -1.1270    0.3020    0.0000 F   0  0  0  0  0  0  0  0  0  0  0  0
   -0.3020   -1.1270    0.0000 F   0  0  0  0  0  0  0  0  0  0  0  0
    0.0000    0.8250    0.0000 C   0  0  0  0  0  0  0  0  0  0  0  0
  1  2  1  0  0  0  0
  2  3  1  0  0  0  0
  2  4  1  0  0  0  0
  2  5  1  0  0  0  0
  5  6  2  0  0  0  0
  5  7  1  0  0  0  0
  7  8  1  0  0  0  0
  8  9  4  0  0  0  0
  9 10  4  0  0  0  0
 10 11  4  0  0  0  0
 11 12  1  0  0  0  0
 12 13  2  0  0  0  0
 12 14  1  0  0  0  0
 11 15  4  0  0  0  0
 15 16  1  0  0  0  0
 16 17  1  0  0  0  0
 16 18  1  0  0  0  0
 16 19  1  0  0  0  0
 15 20  4  0  0  0  0
  8 20  4  0  0  0  0
M  CHG  2  12   1  14  -1
M  END
> <activity>
29.8

> <InChiKey>
YPQLFJODEKMJEF-UHFFFAOYSA-N

$$$$

  Mrv2220 08292413132D          

 16 16  0  0  0  0            999 V2000
   -1.4289   -2.4750    0.0000 C   0  0  0  0  0  0  0  0  0  0  0  0
   -0.7145   -2.0625    0.0000 C   0  0  0  0  0  0  0  0  0  0  0  0
    0.0000   -2.4750    0.0000 C   0  0  0  0  0  0  0  0  0  0  0  0
    0.0000   -3.3000    0.0000 C   0  0  0  0  0  0  0  0  0  0  0  0
    0.7145   -2.0625    0.0000 O   0  0  0  0  0  0  0  0  0  0  0  0
    1.4289   -2.4750    0.0000 C   0  0  0  0  0  0  0  0  0  0  0  0
    1.4289   -3.3000    0.0000 O   0  0  0  0  0  0  0  0  0  0  0  0
    2.1434   -2.0625    0.0000 N   0  0  0  0  0  0  0  0  0  0  0  0
    2.1434   -1.2375    0.0000 C   0  0  0  0  0  0  0  0  0  0  0  0
    2.8579   -0.8250    0.0000 C   0  0  0  0  0  0  0  0  0  0  0  0
    3.5724   -1.2375    0.0000 C   0  0  0  0  0  0  0  0  0  0  0  0
    3.5724   -2.0625    0.0000 C   0  0  0  0  0  0  0  0  0  0  0  0
    2.8579   -2.4750    0.0000 C   0  0  0  0  0  0  0  0  0  0  0  0
    2.8579   -3.3000    0.0000 C   0  0  0  0  0  0  0  0  0  0  0  0
    3.5724   -3.7125    0.0000 C   0  0  0  0  0  0  0  0  0  0  0  0
    4.2868   -3.3000    0.0000 O   0  0  0  0  0  0  0  0  0  0  0  0
  1  2  1  0  0  0  0
  2  3  1  0  0  0  0
  3  4  1  0  0  0  0
  3  5  1  0  0  0  0
  5  6  1  0  0  0  0
  6  7  2  0  0  0  0
  6  8  1  0  0  0  0
  8  9  1  0  0  0  0
  9 10  1  0  0  0  0
 10 11  1  0  0  0  0
 11 12  1  0  0  0  0
 12 13  1  0  0  0  0
  8 13  1  0  0  0  0
 13 14  1  0  0  0  0
 14 15  1  0  0  0  0
 15 16  1  0  0  0  0
M  END
> <activity>
13.4

> <InChiKey>
QLHULAHOXSSASE-UHFFFAOYSA-N

$$$$

  Mrv2220 08292413132D          

 22 22  0  0  0  0            999 V2000
    2.1434   -5.3625    0.0000 C   0  0  0  0  0  0  0  0  0  0  0  0
    2.8579   -4.9500    0.0000 C   0  0  0  0  0  0  0  0  0  0  0  0
    2.8579   -4.1250    0.0000 C   0  0  0  0  0  0  0  0  0  0  0  0
    3.5724   -5.3625    0.0000 C   0  0  0  0  0  0  0  0  0  0  0  0
    4.2868   -4.9500    0.0000 C   0  0  0  0  0  0  0  0  0  0  0  0
    5.0013   -5.3625    0.0000 C   0  0  0  0  0  0  0  0  0  0  0  0
    5.7158   -4.9500    0.0000 C   0  0  0  0  0  0  0  0  0  0  0  0
    6.4302   -5.3625    0.0000 C   0  0  0  0  0  0  0  0  0  0  0  0
    7.1447   -4.9500    0.0000 C   0  0  0  0  0  0  0  0  0  0  0  0
    7.8592   -5.3625    0.0000 C   0  0  0  0  0  0  0  0  0  0  0  0
    8.5737   -4.9500    0.0000 C   0  0  0  0  0  0  0  0  0  0  0  0
    9.2881   -5.3625    0.0000 C   0  0  0  0  0  0  0  0  0  0  0  0
    9.2881   -6.1875    0.0000 C   0  0  0  0  0  0  0  0  0  0  0  0
   10.0026   -6.6000    0.0000 O   0  0  0  0  0  0  0  0  0  0  0  0
   10.0026   -7.4250    0.0000 C   0  0  0  0  0  0  0  0  0  0  0  0
   10.7171   -7.8375    0.0000 C   0  0  0  0  0  0  0  0  0  0  0  0
   10.7171   -8.6625    0.0000 O   0  0  0  0  0  0  0  0  0  0  0  0
   11.4315   -9.0750    0.0000 C   0  0  0  0  0  0  0  0  0  0  0  0
   11.4315   -9.9000    0.0000 C   0  0  0  0  0  0  0  0  0  0  0  0
   12.1460  -10.3125    0.0000 O   0  0  0  0  0  0  0  0  0  0  0  0
    8.5737   -6.6000    0.0000 C   0  0  0  0  0  0  0  0  0  0  0  0
    7.8592   -6.1875    0.0000 C   0  0  0  0  0  0  0  0  0  0  0  0
  1  2  1  0  0  0  0
  2  3  1  0  0  0  0
  2  4  1  0  0  0  0
  4  5  1  0  0  0  0
  5  6  1  0  0  0  0
  6  7  1  0  0  0  0
  7  8  1  0  0  0  0
  8  9  1  0  0  0  0
  9 10  1  0  0  0  0
 10 11  4  0  0  0  0
 11 12  4  0  0  0  0
 12 13  4  0  0  0  0
 13 14  1  0  0  0  0
 14 15  1  0  0  0  0
 15 16  1  0  0  0  0
 16 17  1  0  0  0  0
 17 18  1  0  0  0  0
 18 19  1  0  0  0  0
 19 20  1  0  0  0  0
 13 21  4  0  0  0  0
 21 22  4  0  0  0  0
 10 22  4  0  0  0  0
M  END
> <activity>
2.8

> <InChiKey>
RXXPAEGIPXPLPB-UHFFFAOYSA-N

$$$$

  Mrv2220 08292413132D          

 20 21  0  0  0  0            999 V2000
    5.9607   -0.3188    0.0000 C   0  0  0  0  0  0  0  0  0  0  0  0
    5.6251   -1.0724    0.0000 O   0  0  0  0  0  0  0  0  0  0  0  0
    4.8046   -1.1587    0.0000 C   0  0  0  0  0  0  0  0  0  0  0  0
    4.3197   -0.4912    0.0000 O   0  0  0  0  0  0  0  0  0  0  0  0
    4.4691   -1.9124    0.0000 C   0  0  0  0  0  0  0  0  0  0  0  0
    4.9540   -2.5798    0.0000 C   0  0  0  0  0  0  0  0  0  0  0  0
    4.6184   -3.3335    0.0000 C   0  0  0  0  0  0  0  0  0  0  0  0
    3.7980   -3.4197    0.0000 C   0  0  0  0  0  0  0  0  0  0  0  0
    3.3130   -2.7523    0.0000 C   0  0  0  0  0  0  0  0  0  0  0  0
    3.6486   -1.9986    0.0000 C   0  0  0  0  0  0  0  0  0  0  0  0
    3.1637   -1.3312    0.0000 C   0  0  0  0  0  0  0  0  0  0  0  0
    2.3387   -1.3312    0.0000 N   0  0  0  0  0  0  0  0  0  0  0  0
    2.0837   -0.5465    0.0000 C   0  0  0  0  0  0  0  0  0  0  0  0
    1.2991   -0.2916    0.0000 O   0  0  0  0  0  0  0  0  0  0  0  0
    2.7512   -0.0616    0.0000 C   0  0  0  0  0  0  0  0  0  0  0  0
    2.1991    0.5515    0.0000 C   0  0  0  0  0  0  0  0  0  0  0  0
    3.3032    0.5515    0.0000 C   0  0  0  0  0  0  0  0  0  0  0  0
    3.0483    1.3361    0.0000 C   0  0  0  0  0  0  0  0  0  0  0  0
    4.1102    0.3800    0.0000 C   0  0  0  0  0  0  0  0  0  0  0  0
    3.4186   -0.5465    0.0000 N   0  0  0  0  0  0  0  0  0  0  0  0
  1  2  1  0  0  0  0
  2  3  1  0  0  0  0
  3  4  2  0  0  0  0
  3  5  1  0  0  0  0
  5  6  4  0  0  0  0
  6  7  4  0  0  0  0
  7  8  4  0  0  0  0
  8  9  4  0  0  0  0
  9 10  4  0  0  0  0
  5 10  4  0  0  0  0
 10 11  1  0  0  0  0
 11 12  2  0  0  0  0
 12 13  1  0  0  0  0
 13 14  2  0  0  0  0
 13 15  1  0  0  0  0
 15 16  1  0  0  0  0
 15 17  1  0  0  0  0
 17 18  1  0  0  0  0
 17 19  1  0  0  0  0
 15 20  1  0  0  0  0
 11 20  1  0  0  0  0
M  END
> <activity>
12.2

> <InChiKey>
HBEIBCGCAXFZAX-UHFFFAOYSA-N

$$$$

  Mrv2220 08292413132D          

 20 21  0  0  0  0            999 V2000
    3.0667   -0.4732    0.0000 C   0  0  0  0  0  0  0  0  0  0  0  0
    2.5817    0.1942    0.0000 C   0  0  0  0  0  0  0  0  0  0  0  0
    1.7613    0.1080    0.0000 C   0  0  0  0  0  0  0  0  0  0  0  0
    1.2763    0.7754    0.0000 N   0  0  0  0  0  0  0  0  0  0  0  0
    1.6119    1.5291    0.0000 C   0  0  0  0  0  0  0  0  0  0  0  0
    1.1270    2.1965    0.0000 C   0  0  0  0  0  0  0  0  0  0  0  0
    0.3020    2.1965    0.0000 N   0  0  0  0  0  0  0  0  0  0  0  0
    0.0470    2.9812    0.0000 C   0  0  0  0  0  0  0  0  0  0  0  0
   -0.7376    3.2361    0.0000 O   0  0  0  0  0  0  0  0  0  0  0  0
    0.7145    3.4661    0.0000 C   0  0  0  0  0  0  0  0  0  0  0  0
    0.1624    4.0792    0.0000 C   0  0  0  0  0  0  0  0  0  0  0  0
    1.2665    4.0792    0.0000 C   0  0  0  0  0  0  0  0  0  0  0  0
    1.0116    4.8638    0.0000 C   0  0  0  0  0  0  0  0  0  0  0  0
    2.0735    3.9076    0.0000 C   0  0  0  0  0  0  0  0  0  0  0  0
    1.3819    2.9812    0.0000 N   0  0  0  0  0  0  0  0  0  0  0  0
    2.4324    1.6153    0.0000 C   0  0  0  0  0  0  0  0  0  0  0  0
    2.7679    2.3690    0.0000 C   0  0  0  0  0  0  0  0  0  0  0  0
    3.5884    2.4552    0.0000 O   0  0  0  0  0  0  0  0  0  0  0  0
    2.2830    3.0364    0.0000 O   0  0  0  0  0  0  0  0  0  0  0  0
    2.9173    0.9479    0.0000 C   0  0  0  0  0  0  0  0  0  0  0  0
  1  2  1  0  0  0  0
  2  3  4  0  0  0  0
  3  4  4  0  0  0  0
  4  5  4  0  0  0  0
  5  6  1  0  0  0  0
  6  7  2  0  0  0  0
  7  8  1  0  0  0  0
  8  9  2  0  0  0  0
  8 10  1  0  0  0  0
 10 11  1  0  0  0  0
 10 12  1  0  0  0  0
 12 13  1  0  0  0  0
 12 14  1  0  0  0  0
 10 15  1  0  0  0  0
  6 15  1  0  0  0  0
  5 16  4  0  0  0  0
 16 17  1  0  0  0  0
 17 18  2  0  0  0  0
 17 19  1  0  0  0  0
 16 20  4  0  0  0  0
  2 20  4  0  0  0  0
M  END
> <activity>
12.5

> <InChiKey>
PVSGXWMWNRGTKE-UHFFFAOYSA-N

$$$$

  Mrv2220 08292413132D          

 23 25  0  0  0  0            999 V2000
    0.1687    1.9482    0.0000 C   0  0  0  0  0  0  0  0  0  0  0  0
   -0.6383    1.7766    0.0000 C   0  0  0  0  0  0  0  0  0  0  0  0
   -1.1903    2.3897    0.0000 C   0  0  0  0  0  0  0  0  0  0  0  0
   -0.8932    0.9920    0.0000 C   0  0  0  0  0  0  0  0  0  0  0  0
   -1.6469    1.3276    0.0000 C   0  0  0  0  0  0  0  0  0  0  0  0
   -0.0862    0.8205    0.0000 N   0  0  0  0  0  0  0  0  0  0  0  0
    0.0000   -0.0000    0.0000 C   0  0  0  0  0  0  0  0  0  0  0  0
    0.7145   -0.4125    0.0000 C   0  0  0  0  0  0  0  0  0  0  0  0
    1.4289    0.0000    0.0000 N   0  0  0  0  0  0  0  0  0  0  0  0
    2.1434   -0.4125    0.0000 C   0  0  0  0  0  0  0  0  0  0  0  0
    2.8579    0.0000    0.0000 C   0  0  0  0  0  0  0  0  0  0  0  0
    3.5724   -0.4125    0.0000 C   0  0  0  0  0  0  0  0  0  0  0  0
    3.5724   -1.2375    0.0000 C   0  0  0  0  0  0  0  0  0  0  0  0
    2.8579   -1.6500    0.0000 C   0  0  0  0  0  0  0  0  0  0  0  0
    2.1434   -1.2375    0.0000 C   0  0  0  0  0  0  0  0  0  0  0  0
    1.4289   -1.6500    0.0000 C   0  0  0  0  0  0  0  0  0  0  0  0
    0.7145   -1.2375    0.0000 C   0  0  0  0  0  0  0  0  0  0  0  0
    0.0000   -1.6500    0.0000 C   0  0  0  0  0  0  0  0  0  0  0  0
   -0.7145   -1.2375    0.0000 O   0  0  0  0  0  0  0  0  0  0  0  0
    0.0000   -2.4750    0.0000 O   0  0  0  0  0  0  0  0  0  0  0  0
   -0.7537   -0.3356    0.0000 N   0  0  0  0  0  0  0  0  0  0  0  0
   -1.3057    0.2775    0.0000 C   0  0  0  0  0  0  0  0  0  0  0  0
   -2.1262    0.1913    0.0000 O   0  0  0  0  0  0  0  0  0  0  0  0
  1  2  1  0  0  0  0
  2  3  1  0  0  0  0
  2  4  1  0  0  0  0
  4  5  1  0  0  0  0
  4  6  1  0  0  0  0
  6  7  2  0  0  0  0
  7  8  1  0  0  0  0
  8  9  4  0  0  0  0
  9 10  4  0  0  0  0
 10 11  4  0  0  0  0
 11 12  4  0  0  0  0
 12 13  4  0  0  0  0
 13 14  4  0  0  0  0
 14 15  4  0  0  0  0
 10 15  4  0  0  0  0
 15 16  4  0  0  0  0
 16 17  4  0  0  0  0
  8 17  4  0  0  0  0
 17 18  1  0  0  0  0
 18 19  2  0  0  0  0
 18 20  1  0  0  0  0
  7 21  1  0  0  0  0
 21 22  1  0  0  0  0
  4 22  1  0  0  0  0
 22 23  2  0  0  0  0
M  END
> <activity>
14.5

> <InChiKey>
CABMTIJINOIHOD-UHFFFAOYSA-N

$$$$

  Mrv2220 08292413132D          

 21 22  0  0  0  0            999 V2000
   -1.3022   -1.2269    0.0000 C   0  0  0  0  0  0  0  0  0  0  0  0
   -1.6377   -0.4732    0.0000 C   0  0  0  0  0  0  0  0  0  0  0  0
   -1.1528    0.1942    0.0000 C   0  0  0  0  0  0  0  0  0  0  0  0
   -1.4884    0.9479    0.0000 C   0  0  0  0  0  0  0  0  0  0  0  0
   -1.0034    1.6153    0.0000 N   0  0  0  0  0  0  0  0  0  0  0  0
   -0.1830    1.5291    0.0000 C   0  0  0  0  0  0  0  0  0  0  0  0
    0.3020    2.1965    0.0000 C   0  0  0  0  0  0  0  0  0  0  0  0
    0.0470    2.9812    0.0000 N   0  0  0  0  0  0  0  0  0  0  0  0
    0.7145    3.4661    0.0000 C   0  0  0  0  0  0  0  0  0  0  0  0
    0.1624    4.0792    0.0000 C   0  0  0  0  0  0  0  0  0  0  0  0
    1.2665    4.0792    0.0000 C   0  0  0  0  0  0  0  0  0  0  0  0
    1.0116    4.8638    0.0000 C   0  0  0  0  0  0  0  0  0  0  0  0
    2.0735    3.9076    0.0000 C   0  0  0  0  0  0  0  0  0  0  0  0
    1.3819    2.9812    0.0000 C   0  0  0  0  0  0  0  0  0  0  0  0
    2.1665    3.2361    0.0000 O   0  0  0  0  0  0  0  0  0  0  0  0
    1.1270    2.1965    0.0000 N   0  0  0  0  0  0  0  0  0  0  0  0
    0.1526    0.7754    0.0000 C   0  0  0  0  0  0  0  0  0  0  0  0
    0.9731    0.6892    0.0000 C   0  0  0  0  0  0  0  0  0  0  0  0
    1.3086   -0.0645    0.0000 O   0  0  0  0  0  0  0  0  0  0  0  0
    1.4580    1.3566    0.0000 O   0  0  0  0  0  0  0  0  0  0  0  0
   -0.3323    0.1080    0.0000 C   0  0  0  0  0  0  0  0  0  0  0  0
  1  2  1  0  0  0  0
  2  3  1  0  0  0  0
  3  4  4  0  0  0  0
  4  5  4  0  0  0  0
  5  6  4  0  0  0  0
  6  7  1  0  0  0  0
  7  8  2  0  0  0  0
  8  9  1  0  0  0  0
  9 10  1  0  0  0  0
  9 11  1  0  0  0  0
 11 12  1  0  0  0  0
 11 13  1  0  0  0  0
  9 14  1  0  0  0  0
 14 15  2  0  0  0  0
 14 16  1  0  0  0  0
  7 16  1  0  0  0  0
  6 17  4  0  0  0  0
 17 18  1  0  0  0  0
 18 19  2  0  0  0  0
 18 20  1  0  0  0  0
 17 21  4  0  0  0  0
  3 21  4  0  0  0  0
M  END
> <activity>
8.2

> <InChiKey>
XVOKUMIPKHGGTN-UHFFFAOYSA-N

$$$$

  Mrv2220 08292413132D          

  5  5  0  0  0  0            999 V2000
    0.5678    1.1143    0.0000 C   0  0  0  0  0  0  0  0  0  0  0  0
    1.2352    0.6294    0.0000 C   0  0  0  0  0  0  0  0  0  0  0  0
    0.9803   -0.1553    0.0000 N   0  0  0  0  0  0  0  0  0  0  0  0
    0.1553   -0.1553    0.0000 C   0  0  0  0  0  0  0  0  0  0  0  0
   -0.0997    0.6294    0.0000 N   0  0  0  0  0  0  0  0  0  0  0  0
  1  2  4  0  0  0  0
  2  3  4  0  0  0  0
  3  4  4  0  0  0  0
  4  5  4  0  0  0  0
  1  5  4  0  0  0  0
M  STY  1   1 DAT
M  SAL   1  1   3
M  SDT   1 MRV_IMPLICIT_H                                        
M  SDD   1     0.5304   -0.4125    DR    ALL  0       0  
M  SED   1 IMPL_H1
M  END
> <activity>
3.6

> <InChiKey>
RAXXELZNTBOGNW-UHFFFAOYSA-N

$$$$

  Mrv2220 08292413132D          

 27 28  0  0  0  0            999 V2000
    3.7206   -3.9952    0.0000 O   0  0  0  0  0  0  0  0  0  0  0  0
    3.7206   -4.8202    0.0000 C   0  0  0  0  0  0  0  0  0  0  0  0
    3.0062   -5.2327    0.0000 N   0  0  0  0  0  0  0  0  0  0  0  0
    2.2917   -4.8202    0.0000 C   0  0  0  0  0  0  0  0  0  0  0  0
    1.5772   -5.2327    0.0000 N   0  0  0  0  0  0  0  0  0  0  0  0
    0.8628   -4.8202    0.0000 C   0  0  0  0  0  0  0  0  0  0  0  0
    0.8628   -3.9952    0.0000 O   0  0  0  0  0  0  0  0  0  0  0  0
    0.1483   -5.2327    0.0000 N   0  0  0  0  0  0  0  0  0  0  0  0
   -0.5662   -4.8202    0.0000 C   0  0  0  0  0  0  0  0  0  0  0  0
   -1.3199   -5.1558    0.0000 C   0  0  0  0  0  0  0  0  0  0  0  0
   -1.4914   -5.9627    0.0000 O   0  0  0  0  0  0  0  0  0  0  0  0
   -1.8719   -4.5427    0.0000 N   0  0  0  0  0  0  0  0  0  0  0  0
   -1.4594   -3.8282    0.0000 C   0  0  0  0  0  0  0  0  0  0  0  0
   -1.7950   -3.0745    0.0000 O   0  0  0  0  0  0  0  0  0  0  0  0
   -0.6524   -3.9997    0.0000 N   0  0  0  0  0  0  0  0  0  0  0  0
   -0.0393   -3.4477    0.0000 C   0  0  0  0  0  0  0  0  0  0  0  0
   -0.2109   -2.6407    0.0000 O   0  0  0  0  0  0  0  0  0  0  0  0
    4.4351   -5.2327    0.0000 N   0  0  0  0  0  0  0  0  0  0  0  0
    5.1496   -4.8202    0.0000 C   0  0  0  0  0  0  0  0  0  0  0  0
    5.2358   -3.9997    0.0000 C   0  0  0  0  0  0  0  0  0  0  0  0
    4.6227   -3.4477    0.0000 O   0  0  0  0  0  0  0  0  0  0  0  0
    6.0428   -3.8282    0.0000 N   0  0  0  0  0  0  0  0  0  0  0  0
    6.4553   -4.5427    0.0000 C   0  0  0  0  0  0  0  0  0  0  0  0
    7.2758   -4.6289    0.0000 O   0  0  0  0  0  0  0  0  0  0  0  0
    5.9033   -5.1558    0.0000 N   0  0  0  0  0  0  0  0  0  0  0  0
    6.0748   -5.9627    0.0000 C   0  0  0  0  0  0  0  0  0  0  0  0
    5.4617   -6.5148    0.0000 O   0  0  0  0  0  0  0  0  0  0  0  0
  1  2  2  0  0  0  0
  2  3  1  0  0  0  0
  3  4  1  0  0  0  0
  4  5  1  0  0  0  0
  5  6  1  0  0  0  0
  6  7  2  0  0  0  0
  6  8  1  0  0  0  0
  8  9  1  0  0  0  0
  9 10  1  0  0  0  0
 10 11  2  0  0  0  0
 10 12  1  0  0  0  0
 12 13  1  0  0  0  0
 13 14  2  0  0  0  0
 13 15  1  0  0  0  0
  9 15  1  0  0  0  0
 15 16  1  0  0  0  0
 16 17  1  0  0  0  0
  2 18  1  0  0  0  0
 18 19  1  0  0  0  0
 19 20  1  0  0  0  0
 20 21  2  0  0  0  0
 20 22  1  0  0  0  0
 22 23  1  0  0  0  0
 23 24  2  0  0  0  0
 23 25  1  0  0  0  0
 19 25  1  0  0  0  0
 25 26  1  0  0  0  0
 26 27  1  0  0  0  0
M  END
> <activity>
20.5

> <InChiKey>
ZCTXEAQXZGPWFG-UHFFFAOYSA-N

$$$$

  Mrv2220 08292413132D          

 36 39  0  0  0  0            999 V2000
   -0.2332   -4.2849    0.0000 C   0  0  0  0  0  0  0  0  0  0  0  0
    0.3188   -3.6718    0.0000 O   0  0  0  0  0  0  0  0  0  0  0  0
    0.0639   -2.8872    0.0000 C   0  0  0  0  0  0  0  0  0  0  0  0
   -0.7431   -2.7157    0.0000 O   0  0  0  0  0  0  0  0  0  0  0  0
    0.6159   -2.2741    0.0000 N   0  0  0  0  0  0  0  0  0  0  0  0
    1.4229   -2.4457    0.0000 C   0  0  0  0  0  0  0  0  0  0  0  0
    1.6778   -3.2303    0.0000 O   0  0  0  0  0  0  0  0  0  0  0  0
    1.9749   -1.8326    0.0000 N   0  0  0  0  0  0  0  0  0  0  0  0
    1.7200   -1.0479    0.0000 C   0  0  0  0  0  0  0  0  0  0  0  0
    2.2720   -0.4349    0.0000 O   0  0  0  0  0  0  0  0  0  0  0  0
    3.0790   -0.6064    0.0000 C   0  0  0  0  0  0  0  0  0  0  0  0
    2.9075    0.2006    0.0000 C   0  0  0  0  0  0  0  0  0  0  0  0
    3.5206    0.7526    0.0000 O   0  0  0  0  0  0  0  0  0  0  0  0
    2.1228    0.4555    0.0000 O   0  0  0  0  0  0  0  0  0  0  0  0
    1.9513    1.2625    0.0000 C   0  0  0  0  0  0  0  0  0  0  0  0
    3.7464   -0.1215    0.0000 C   0  0  0  0  0  0  0  0  0  0  0  0
    4.4139   -0.6064    0.0000 C   0  0  0  0  0  0  0  0  0  0  0  0
    5.2208   -0.4349    0.0000 C   0  0  0  0  0  0  0  0  0  0  0  0
    5.7729   -1.0479    0.0000 C   0  0  0  0  0  0  0  0  0  0  0  0
    6.5798   -0.8764    0.0000 Cl  0  0  0  0  0  0  0  0  0  0  0  0
    5.5179   -1.8326    0.0000 C   0  0  0  0  0  0  0  0  0  0  0  0
    4.7110   -2.0041    0.0000 C   0  0  0  0  0  0  0  0  0  0  0  0
    4.1589   -1.3910    0.0000 C   0  0  0  0  0  0  0  0  0  0  0  0
    3.3339   -1.3910    0.0000 C   0  0  0  0  0  0  0  0  0  0  0  0
    2.7819   -2.0041    0.0000 N   0  0  0  0  0  0  0  0  0  0  0  0
    0.3610   -1.4895    0.0000 C   0  0  0  0  0  0  0  0  0  0  0  0
   -0.4460   -1.3180    0.0000 C   0  0  0  0  0  0  0  0  0  0  0  0
   -0.7009   -0.5334    0.0000 C   0  0  0  0  0  0  0  0  0  0  0  0
   -0.1489    0.0797    0.0000 C   0  0  0  0  0  0  0  0  0  0  0  0
   -0.4038    0.8644    0.0000 O   0  0  0  0  0  0  0  0  0  0  0  0
   -1.2108    1.0359    0.0000 C   0  0  0  0  0  0  0  0  0  0  0  0
   -2.0178    1.2074    0.0000 F   0  0  0  0  0  0  0  0  0  0  0  0
   -1.0393    1.8429    0.0000 F   0  0  0  0  0  0  0  0  0  0  0  0
   -1.3823    0.2289    0.0000 F   0  0  0  0  0  0  0  0  0  0  0  0
    0.6581   -0.0918    0.0000 C   0  0  0  0  0  0  0  0  0  0  0  0
    0.9130   -0.8764    0.0000 C   0  0  0  0  0  0  0  0  0  0  0  0
  1  2  1  0  0  0  0
  2  3  1  0  0  0  0
  3  4  2  0  0  0  0
  3  5  1  0  0  0  0
  5  6  1  0  0  0  0
  6  7  2  0  0  0  0
  6  8  1  0  0  0  0
  8  9  1  0  0  0  0
  9 10  1  0  0  0  0
 10 11  1  0  0  0  0
 11 12  1  0  0  0  0
 12 13  2  0  0  0  0
 12 14  1  0  0  0  0
 14 15  1  0  0  0  0
 11 16  1  0  0  0  0
 16 17  1  0  0  0  0
 17 18  4  0  0  0  0
 18 19  4  0  0  0  0
 19 20  1  0  0  0  0
 19 21  4  0  0  0  0
 21 22  4  0  0  0  0
 22 23  4  0  0  0  0
 17 23  4  0  0  0  0
 23 24  1  0  0  0  0
 11 24  1  0  0  0  0
 24 25  2  0  0  0  0
  8 25  1  0  0  0  0
  5 26  1  0  0  0  0
 26 27  4  0  0  0  0
 27 28  4  0  0  0  0
 28 29  4  0  0  0  0
 29 30  1  0  0  0  0
 30 31  1  0  0  0  0
 31 32  1  0  0  0  0
 31 33  1  0  0  0  0
 31 34  1  0  0  0  0
 29 35  4  0  0  0  0
 35 36  4  0  0  0  0
 26 36  4  0  0  0  0
M  END
> <activity>
37.9

> <InChiKey>
VBCVPMMZEGZULK-UHFFFAOYSA-N

$$$$

  Mrv2220 08292413132D          

 32 35  0  0  0  0            999 V2000
    2.1190   -2.8452    0.0000 O   0  0  0  0  0  0  0  0  0  0  0  0
    2.1190   -2.0202    0.0000 C   0  0  0  0  0  0  0  0  0  0  0  0
    2.8334   -1.6077    0.0000 N   0  0  0  0  0  0  0  0  0  0  0  0
    3.5479   -2.0202    0.0000 C   0  0  0  0  0  0  0  0  0  0  0  0
    3.5479   -2.8452    0.0000 C   0  0  0  0  0  0  0  0  0  0  0  0
    4.2624   -3.2577    0.0000 C   0  0  0  0  0  0  0  0  0  0  0  0
    4.9769   -2.8452    0.0000 C   0  0  0  0  0  0  0  0  0  0  0  0
    5.6913   -3.2577    0.0000 C   0  0  0  0  0  0  0  0  0  0  0  0
    5.6913   -4.0827    0.0000 C   0  0  0  0  0  0  0  0  0  0  0  0
    4.9769   -4.4952    0.0000 C   0  0  0  0  0  0  0  0  0  0  0  0
    4.2624   -4.0827    0.0000 C   0  0  0  0  0  0  0  0  0  0  0  0
    4.2624   -1.6077    0.0000 C   0  0  0  0  0  0  0  0  0  0  0  0
    4.2624   -0.7827    0.0000 O   0  0  0  0  0  0  0  0  0  0  0  0
    4.9769   -2.0202    0.0000 C   0  0  0  0  0  0  0  0  0  0  0  0
    5.4618   -2.6876    0.0000 O   0  0  0  0  0  0  0  0  0  0  0  0
    5.6913   -1.6077    0.0000 N   0  0  0  0  0  0  0  0  0  0  0  0
    5.7776   -0.7872    0.0000 C   0  0  0  0  0  0  0  0  0  0  0  0
    6.5845   -0.6157    0.0000 C   0  0  0  0  0  0  0  0  0  0  0  0
    6.9201    0.1380    0.0000 O   0  0  0  0  0  0  0  0  0  0  0  0
    6.9970   -1.3301    0.0000 C   0  0  0  0  0  0  0  0  0  0  0  0
    7.8175   -1.4164    0.0000 O   0  0  0  0  0  0  0  0  0  0  0  0
    6.4450   -1.9432    0.0000 C   0  0  0  0  0  0  0  0  0  0  0  0
    1.4045   -1.6077    0.0000 C   0  0  0  0  0  0  0  0  0  0  0  0
    0.6508   -1.9432    0.0000 C   0  0  0  0  0  0  0  0  0  0  0  0
    0.0988   -1.3301    0.0000 C   0  0  0  0  0  0  0  0  0  0  0  0
   -0.7262   -1.3301    0.0000 C   0  0  0  0  0  0  0  0  0  0  0  0
   -1.1387   -0.6157    0.0000 C   0  0  0  0  0  0  0  0  0  0  0  0
   -1.9637   -0.6157    0.0000 Cl  0  0  0  0  0  0  0  0  0  0  0  0
   -0.7262    0.0988    0.0000 C   0  0  0  0  0  0  0  0  0  0  0  0
    0.0988    0.0988    0.0000 C   0  0  0  0  0  0  0  0  0  0  0  0
    0.5113   -0.6157    0.0000 C   0  0  0  0  0  0  0  0  0  0  0  0
    1.3183   -0.7872    0.0000 N   0  0  0  0  0  0  0  0  0  0  0  0
  1  2  2  0  0  0  0
  2  3  1  0  0  0  0
  3  4  1  0  0  0  0
  4  5  1  0  0  0  0
  5  6  1  0  0  0  0
  6  7  4  0  0  0  0
  7  8  4  0  0  0  0
  8  9  4  0  0  0  0
  9 10  4  0  0  0  0
 10 11  4  0  0  0  0
  6 11  4  0  0  0  0
  4 12  1  0  0  0  0
 12 13  1  0  0  0  0
 12 14  1  0  0  0  0
 14 15  2  0  0  0  0
 14 16  1  0  0  0  0
 16 17  1  0  0  0  0
 17 18  1  0  0  0  0
 18 19  1  0  0  0  0
 18 20  1  0  0  0  0
 20 21  1  0  0  0  0
 20 22  1  0  0  0  0
 16 22  1  0  0  0  0
  2 23  1  0  0  0  0
 23 24  4  0  0  0  0
 24 25  4  0  0  0  0
 25 26  4  0  0  0  0
 26 27  4  0  0  0  0
 27 28  1  0  0  0  0
 27 29  4  0  0  0  0
 29 30  4  0  0  0  0
 30 31  4  0  0  0  0
 25 31  4  0  0  0  0
 31 32  4  0  0  0  0
 23 32  4  0  0  0  0
M  STY  1   1 DAT
M  SAL   1  1  32
M  SDT   1 MRV_IMPLICIT_H                                        
M  SDD   1     0.5304   -0.4125    DR    ALL  0       0  
M  SED   1 IMPL_H1
M  END
> <activity>
52.2

> <InChiKey>
GVDRRZOORHCTAN-UHFFFAOYSA-N

$$$$

  Mrv2220 08292413132D          

 27 28  0  0  0  0            999 V2000
   -1.4289   -0.8250    0.0000 C   0  0  0  0  0  0  0  0  0  0  0  0
   -1.4289   -1.6500    0.0000 O   0  0  0  0  0  0  0  0  0  0  0  0
   -2.1434   -2.0625    0.0000 C   0  0  0  0  0  0  0  0  0  0  0  0
   -2.8579   -1.6500    0.0000 O   0  0  0  0  0  0  0  0  0  0  0  0
   -2.1434   -2.8875    0.0000 C   0  0  0  0  0  0  0  0  0  0  0  0
   -1.4289   -3.3000    0.0000 C   0  0  0  0  0  0  0  0  0  0  0  0
   -1.4289   -4.1250    0.0000 C   0  0  0  0  0  0  0  0  0  0  0  0
   -2.1434   -4.5375    0.0000 C   0  0  0  0  0  0  0  0  0  0  0  0
   -2.1434   -5.3625    0.0000 I   0  0  0  0  0  0  0  0  0  0  0  0
   -2.8579   -4.1250    0.0000 C   0  0  0  0  0  0  0  0  0  0  0  0
   -2.8579   -3.3000    0.0000 C   0  0  0  0  0  0  0  0  0  0  0  0
   -3.5724   -2.8875    0.0000 S   0  0  0  0  0  0  0  0  0  0  0  0
   -3.1599   -2.1730    0.0000 O   0  0  0  0  0  0  0  0  0  0  0  0
   -3.9849   -3.6020    0.0000 O   0  0  0  0  0  0  0  0  0  0  0  0
   -4.2868   -2.4750    0.0000 N   0  0  0  0  0  0  0  0  0  0  0  0
   -5.0013   -2.8875    0.0000 C   0  0  0  0  0  0  0  0  0  0  0  0
   -5.0013   -3.7125    0.0000 O   0  0  0  0  0  0  0  0  0  0  0  0
   -5.7158   -2.4750    0.0000 N   0  0  0  0  0  0  0  0  0  0  0  0
   -6.4302   -2.8875    0.0000 C   0  0  0  0  0  0  0  0  0  0  0  0
   -6.4302   -3.7125    0.0000 N   0  0  0  0  0  0  0  0  0  0  0  0
   -7.1447   -4.1250    0.0000 C   0  0  0  0  0  0  0  0  0  0  0  0
   -7.1447   -4.9500    0.0000 C   0  0  0  0  0  0  0  0  0  0  0  0
   -7.8592   -3.7125    0.0000 N   0  0  0  0  0  0  0  0  0  0  0  0
   -7.8592   -2.8875    0.0000 C   0  0  0  0  0  0  0  0  0  0  0  0
   -8.5737   -2.4750    0.0000 O   0  0  0  0  0  0  0  0  0  0  0  0
   -9.2881   -2.8875    0.0000 C   0  0  0  0  0  0  0  0  0  0  0  0
   -7.1447   -2.4750    0.0000 N   0  0  0  0  0  0  0  0  0  0  0  0
  1  2  1  0  0  0  0
  2  3  1  0  0  0  0
  3  4  2  0  0  0  0
  3  5  1  0  0  0  0
  5  6  4  0  0  0  0
  6  7  4  0  0  0  0
  7  8  4  0  0  0  0
  8  9  1  0  0  0  0
  8 10  4  0  0  0  0
 10 11  4  0  0  0  0
  5 11  4  0  0  0  0
 11 12  1  0  0  0  0
 12 13  2  0  0  0  0
 12 14  2  0  0  0  0
 12 15  1  0  0  0  0
 15 16  1  0  0  0  0
 16 17  2  0  0  0  0
 16 18  1  0  0  0  0
 18 19  1  0  0  0  0
 19 20  4  0  0  0  0
 20 21  4  0  0  0  0
 21 22  1  0  0  0  0
 21 23  4  0  0  0  0
 23 24  4  0  0  0  0
 24 25  1  0  0  0  0
 25 26  1  0  0  0  0
 24 27  4  0  0  0  0
 19 27  4  0  0  0  0
M  END
> <activity>
96.9

> <InChiKey>
VWGAYSCWLXQJBQ-UHFFFAOYSA-N

$$$$

  Mrv2220 08292413132D          

 17 17  0  0  0  0            999 V2000
   -1.4289    2.4750    0.0000 C   0  0  0  0  0  0  0  0  0  0  0  0
   -0.7145    2.0625    0.0000 C   0  0  0  0  0  0  0  0  0  0  0  0
    0.0000    2.4750    0.0000 C   0  0  0  0  0  0  0  0  0  0  0  0
    0.7145    2.0625    0.0000 C   0  0  0  0  0  0  0  0  0  0  0  0
    0.7145    1.2375    0.0000 C   0  0  0  0  0  0  0  0  0  0  0  0
    1.4289    0.8250    0.0000 C   0  0  0  0  0  0  0  0  0  0  0  0
    2.1434    1.2375    0.0000 I   0  0  0  0  0  0  0  0  0  0  0  0
    1.4289   -0.0000    0.0000 C   0  0  0  0  0  0  0  0  0  0  0  0
    0.7145   -0.4125    0.0000 C   0  0  0  0  0  0  0  0  0  0  0  0
    0.7145   -1.2375    0.0000 I   0  0  0  0  0  0  0  0  0  0  0  0
    0.0000    0.0000    0.0000 C   0  0  0  0  0  0  0  0  0  0  0  0
   -0.7145   -0.4125    0.0000 N   0  0  0  0  0  0  0  0  0  0  0  0
    0.0000    0.8250    0.0000 C   0  0  0  0  0  0  0  0  0  0  0  0
   -0.7145    1.2375    0.0000 I   0  0  0  0  0  0  0  0  0  0  0  0
    0.0000    3.3000    0.0000 C   0  0  0  0  0  0  0  0  0  0  0  0
    0.7145    3.7125    0.0000 O   0  0  0  0  0  0  0  0  0  0  0  0
   -0.7145    3.7125    0.0000 O   0  0  0  0  0  0  0  0  0  0  0  0
  1  2  1  0  0  0  0
  2  3  1  0  0  0  0
  3  4  1  0  0  0  0
  4  5  1  0  0  0  0
  5  6  4  0  0  0  0
  6  7  1  0  0  0  0
  6  8  4  0  0  0  0
  8  9  4  0  0  0  0
  9 10  1  0  0  0  0
  9 11  4  0  0  0  0
 11 12  1  0  0  0  0
 11 13  4  0  0  0  0
  5 13  4  0  0  0  0
 13 14  1  0  0  0  0
  3 15  1  0  0  0  0
 15 16  2  0  0  0  0
 15 17  1  0  0  0  0
M  END
> <activity>
102.5

> <InChiKey>
OIRFJRBSRORBCM-UHFFFAOYSA-N

$$$$

  Mrv2220 08292413132D          

 18 18  0  0  0  0            999 V2000
    2.7112    4.0018    0.0000 C   0  0  0  0  0  0  0  0  0  0  0  0
    1.9967    3.5893    0.0000 C   0  0  0  0  0  0  0  0  0  0  0  0
    1.9967    2.7643    0.0000 O   0  0  0  0  0  0  0  0  0  0  0  0
    1.2822    2.3518    0.0000 P   0  0  0  0  0  0  0  0  0  0  0  0
    0.8697    3.0663    0.0000 S   0  0  0  0  0  0  0  0  0  0  0  0
    1.6947    1.6373    0.0000 O   0  0  0  0  0  0  0  0  0  0  0  0
    2.5197    1.6373    0.0000 C   0  0  0  0  0  0  0  0  0  0  0  0
    2.9322    0.9228    0.0000 C   0  0  0  0  0  0  0  0  0  0  0  0
    0.5678    1.9393    0.0000 O   0  0  0  0  0  0  0  0  0  0  0  0
    0.5678    1.1143    0.0000 C   0  0  0  0  0  0  0  0  0  0  0  0
    1.2352    0.6294    0.0000 N   0  0  0  0  0  0  0  0  0  0  0  0
    0.9803   -0.1553    0.0000 C   0  0  0  0  0  0  0  0  0  0  0  0
    1.4652   -0.8227    0.0000 Cl  0  0  0  0  0  0  0  0  0  0  0  0
    0.1553   -0.1553    0.0000 N   0  0  0  0  0  0  0  0  0  0  0  0
   -0.3297   -0.8227    0.0000 C   0  0  0  0  0  0  0  0  0  0  0  0
    0.0059   -1.5764    0.0000 C   0  0  0  0  0  0  0  0  0  0  0  0
   -1.1501   -0.7365    0.0000 C   0  0  0  0  0  0  0  0  0  0  0  0
   -0.0997    0.6294    0.0000 N   0  0  0  0  0  0  0  0  0  0  0  0
  1  2  1  0  0  0  0
  2  3  1  0  0  0  0
  3  4  1  0  0  0  0
  4  5  2  0  0  0  0
  4  6  1  0  0  0  0
  6  7  1  0  0  0  0
  7  8  1  0  0  0  0
  4  9  1  0  0  0  0
  9 10  1  0  0  0  0
 10 11  4  0  0  0  0
 11 12  4  0  0  0  0
 12 13  1  0  0  0  0
 12 14  4  0  0  0  0
 14 15  1  0  0  0  0
 15 16  1  0  0  0  0
 15 17  1  0  0  0  0
 14 18  4  0  0  0  0
 10 18  4  0  0  0  0
M  END
> <activity>
75.6

> <InChiKey>
XRHGWAGWAHHFLF-UHFFFAOYSA-N

$$$$

  Mrv2220 08292413132D          

 11 12  0  0  0  0            999 V2000
    0.2085    0.3661    0.0000 C   0  0  0  0  0  0  0  0  0  0  0  0
    0.9988    0.1293    0.0000 C   0  0  0  0  0  0  0  0  0  0  0  0
    0.2085   -0.1075    0.0000 C   0  0  0  0  0  0  0  0  0  0  0  0
    1.2050    0.9543    0.0000 C   0  0  0  0  0  0  0  0  0  0  0  0
    0.4906    0.5418    0.0000 C   0  0  0  0  0  0  0  0  0  0  0  0
    0.4906   -0.2832    0.0000 C   0  0  0  0  0  0  0  0  0  0  0  0
    1.2050   -0.6957    0.0000 C   0  0  0  0  0  0  0  0  0  0  0  0
    1.2050   -1.5207    0.0000 C   0  0  0  0  0  0  0  0  0  0  0  0
    1.9195   -0.2832    0.0000 C   0  0  0  0  0  0  0  0  0  0  0  0
    2.6340   -0.6957    0.0000 O   0  0  0  0  0  0  0  0  0  0  0  0
    1.9195    0.5418    0.0000 C   0  0  0  0  0  0  0  0  0  0  0  0
  1  2  1  0  0  0  0
  2  3  1  0  0  0  0
  2  4  1  0  0  0  0
  4  5  1  0  0  0  0
  5  6  1  0  0  0  0
  6  7  1  0  0  0  0
  2  7  1  0  0  0  0
  7  8  1  0  0  0  0
  7  9  1  0  0  0  0
  9 10  1  0  0  0  0
  9 11  1  0  0  0  0
  4 11  1  0  0  0  0
M  END
> <activity>
-7.8

> <InChiKey>
DTGKSKDOIYIVQL-UHFFFAOYSA-N

$$$$

  Mrv2220 08292413132D          

 15 16  0  0  0  0            999 V2000
   -1.4514    3.0835    0.0000 C   0  0  0  0  0  0  0  0  0  0  0  0
   -1.3334    2.2670    0.0000 C   0  0  0  0  0  0  0  0  0  0  0  0
   -0.5673    1.9610    0.0000 C   0  0  0  0  0  0  0  0  0  0  0  0
    0.0808    2.4714    0.0000 O   0  0  0  0  0  0  0  0  0  0  0  0
   -0.4447    1.1130    0.0000 O   0  0  0  0  0  0  0  0  0  0  0  0
    0.2733    0.5639    0.0000 C   0  0  0  0  0  0  0  0  0  0  0  0
    0.2543   -0.2609    0.0000 C   0  0  0  0  0  0  0  0  0  0  0  0
    0.8472   -0.6569    0.0000 C   0  0  0  0  0  0  0  0  0  0  0  0
    1.5709   -0.2609    0.0000 C   0  0  0  0  0  0  0  0  0  0  0  0
    1.5899    0.5639    0.0000 C   0  0  0  0  0  0  0  0  0  0  0  0
    0.8850    0.9927    0.0000 C   0  0  0  0  0  0  0  0  0  0  0  0
    0.9414    1.8452    0.0000 C   0  0  0  0  0  0  0  0  0  0  0  0
    0.6599    0.1726    0.0000 C   0  0  0  0  0  0  0  0  0  0  0  0
   -0.3306    0.3517    0.0000 C   0  0  0  0  0  0  0  0  0  0  0  0
   -0.3234   -0.0082    0.0000 C   0  0  0  0  0  0  0  0  0  0  0  0
  1  2  1  0  0  0  0
  2  3  1  0  0  0  0
  3  4  2  0  0  0  0
  3  5  1  0  0  0  0
  5  6  1  0  0  0  0
  6  7  1  0  0  0  0
  7  8  1  0  0  0  0
  8  9  1  0  0  0  0
  9 10  1  0  0  0  0
 10 11  1  0  0  0  0
  6 11  1  0  0  0  0
 11 12  1  0  0  0  0
 11 13  1  0  0  0  0
  8 13  1  0  0  0  0
 13 14  1  0  0  0  0
 13 15  1  0  0  0  0
M  END
> <activity>
10.6

> <InChiKey>
FAFMZORPAAGQFV-UHFFFAOYSA-N

$$$$

  Mrv2220 08292413132D          

 12 12  0  0  0  0            999 V2000
    0.0000    3.3000    0.0000 C   0  0  0  0  0  0  0  0  0  0  0  0
    0.0000    2.4750    0.0000 C   0  0  0  0  0  0  0  0  0  0  0  0
    0.7145    2.0625    0.0000 C   0  0  0  0  0  0  0  0  0  0  0  0
    0.7145    1.2375    0.0000 C   0  0  0  0  0  0  0  0  0  0  0  0
    1.4289    0.8250    0.0000 C   0  0  0  0  0  0  0  0  0  0  0  0
    1.4289   -0.0000    0.0000 C   0  0  0  0  0  0  0  0  0  0  0  0
    0.7145   -0.4125    0.0000 C   0  0  0  0  0  0  0  0  0  0  0  0
    0.7145   -1.2375    0.0000 O   0  0  0  0  0  0  0  0  0  0  0  0
    0.0000    0.0000    0.0000 C   0  0  0  0  0  0  0  0  0  0  0  0
   -0.7145   -0.4125    0.0000 O   0  0  0  0  0  0  0  0  0  0  0  0
   -1.4289    0.0000    0.0000 C   0  0  0  0  0  0  0  0  0  0  0  0
    0.0000    0.8250    0.0000 C   0  0  0  0  0  0  0  0  0  0  0  0
  2  1  1  4  0  0  0
  2  3  2  0  0  0  0
  3  4  1  0  0  0  0
  4  5  4  0  0  0  0
  5  6  4  0  0  0  0
  6  7  4  0  0  0  0
  7  8  1  0  0  0  0
  7  9  4  0  0  0  0
  9 10  1  0  0  0  0
 10 11  1  0  0  0  0
  9 12  4  0  0  0  0
  4 12  4  0  0  0  0
M  END
> <activity>
88.8

> <InChiKey>
BJIOGJUNALELMI-UHFFFAOYSA-N

$$$$

  Mrv2220 08292413132D          

 10 10  0  0  0  0            999 V2000
    0.0000    3.3000    0.0000 N   0  0  0  0  0  0  0  0  0  0  0  0
    0.0000    2.4750    0.0000 N   0  0  0  0  0  0  0  0  0  0  0  0
    0.7145    2.0625    0.0000 C   0  0  0  0  0  0  0  0  0  0  0  0
    1.4289    2.4750    0.0000 O   0  0  0  0  0  0  0  0  0  0  0  0
    0.7145    1.2375    0.0000 C   0  0  0  0  0  0  0  0  0  0  0  0
    1.4289    0.8250    0.0000 C   0  0  0  0  0  0  0  0  0  0  0  0
    1.4289   -0.0000    0.0000 C   0  0  0  0  0  0  0  0  0  0  0  0
    0.7145   -0.4125    0.0000 N   0  0  0  0  0  0  0  0  0  0  0  0
    0.0000    0.0000    0.0000 C   0  0  0  0  0  0  0  0  0  0  0  0
    0.0000    0.8250    0.0000 C   0  0  0  0  0  0  0  0  0  0  0  0
  1  2  1  0  0  0  0
  2  3  1  0  0  0  0
  3  4  2  0  0  0  0
  3  5  1  0  0  0  0
  5  6  4  0  0  0  0
  6  7  4  0  0  0  0
  7  8  4  0  0  0  0
  8  9  4  0  0  0  0
  9 10  4  0  0  0  0
  5 10  4  0  0  0  0
M  END
> <activity>
76.8

> <InChiKey>
QRXWMOHMRWLFEY-UHFFFAOYSA-N

$$$$

  Mrv2220 08292413132D          

 20 19  0  0  0  0            999 V2000
    7.2336    5.0013    0.0000 C   0  0  0  0  0  0  0  0  0  0  0  0
    7.9480    5.4138    0.0000 C   0  0  0  0  0  0  0  0  0  0  0  0
    7.9480    6.2388    0.0000 C   0  0  0  0  0  0  0  0  0  0  0  0
    8.6625    5.0013    0.0000 C   0  0  0  0  0  0  0  0  0  0  0  0
    9.3770    5.4138    0.0000 C   0  0  0  0  0  0  0  0  0  0  0  0
   10.0914    5.0013    0.0000 C   0  0  0  0  0  0  0  0  0  0  0  0
   10.8059    5.4138    0.0000 C   0  0  0  0  0  0  0  0  0  0  0  0
   11.5204    5.0013    0.0000 C   0  0  0  0  0  0  0  0  0  0  0  0
   12.2349    5.4138    0.0000 C   0  0  0  0  0  0  0  0  0  0  0  0
   12.9493    5.0013    0.0000 C   0  0  0  0  0  0  0  0  0  0  0  0
   13.6638    5.4138    0.0000 C   0  0  0  0  0  0  0  0  0  0  0  0
   14.3783    5.0013    0.0000 C   0  0  0  0  0  0  0  0  0  0  0  0
   15.0927    5.4138    0.0000 C   0  0  0  0  0  0  0  0  0  0  0  0
   15.8072    5.0013    0.0000 C   0  0  0  0  0  0  0  0  0  0  0  0
   16.5217    5.4138    0.0000 C   0  0  0  0  0  0  0  0  0  0  0  0
   17.2362    5.0013    0.0000 C   0  0  0  0  0  0  0  0  0  0  0  0
   17.9506    5.4138    0.0000 C   0  0  0  0  0  0  0  0  0  0  0  0
   18.6651    5.0013    0.0000 C   0  0  0  0  0  0  0  0  0  0  0  0
   19.3796    5.4138    0.0000 O   0  0  0  0  0  0  0  0  0  0  0  0
   18.6651    4.1763    0.0000 O   0  0  0  0  0  0  0  0  0  0  0  0
  1  2  1  0  0  0  0
  2  3  1  0  0  0  0
  2  4  1  0  0  0  0
  4  5  1  0  0  0  0
  5  6  1  0  0  0  0
  6  7  1  0  0  0  0
  7  8  1  0  0  0  0
  8  9  1  0  0  0  0
  9 10  1  0  0  0  0
 10 11  1  0  0  0  0
 11 12  1  0  0  0  0
 12 13  1  0  0  0  0
 13 14  1  0  0  0  0
 14 15  1  0  0  0  0
 15 16  1  0  0  0  0
 16 17  1  0  0  0  0
 17 18  1  0  0  0  0
 18 19  2  0  0  0  0
 18 20  1  0  0  0  0
M  END
> <activity>
103.9

> <InChiKey>
XDOFQFKRPWOURC-UHFFFAOYSA-N

$$$$

  Mrv2220 08292413132D          

 13 12  0  0  0  0            999 V2000
    4.2355    3.2704    0.0000 C   0  0  0  0  0  0  0  0  0  0  0  0
    4.9500    2.8579    0.0000 C   0  0  0  0  0  0  0  0  0  0  0  0
    5.6645    3.2704    0.0000 C   0  0  0  0  0  0  0  0  0  0  0  0
    5.6645    4.0954    0.0000 O   0  0  0  0  0  0  0  0  0  0  0  0
    6.3789    2.8579    0.0000 O   0  0  0  0  0  0  0  0  0  0  0  0
    7.0934    3.2704    0.0000 C   0  0  0  0  0  0  0  0  0  0  0  0
    7.8079    2.8579    0.0000 C   0  0  0  0  0  0  0  0  0  0  0  0
    8.5224    3.2704    0.0000 C   0  0  0  0  0  0  0  0  0  0  0  0
    9.2368    2.8579    0.0000 C   0  0  0  0  0  0  0  0  0  0  0  0
    9.9513    3.2704    0.0000 C   0  0  0  0  0  0  0  0  0  0  0  0
   10.6658    2.8579    0.0000 C   0  0  0  0  0  0  0  0  0  0  0  0
   11.3802    3.2704    0.0000 C   0  0  0  0  0  0  0  0  0  0  0  0
   10.6658    2.0329    0.0000 C   0  0  0  0  0  0  0  0  0  0  0  0
  1  2  2  0  0  0  0
  2  3  1  0  0  0  0
  3  4  2  0  0  0  0
  3  5  1  0  0  0  0
  5  6  1  0  0  0  0
  6  7  1  0  0  0  0
  7  8  1  0  0  0  0
  8  9  1  0  0  0  0
  9 10  1  0  0  0  0
 10 11  1  0  0  0  0
 11 12  1  0  0  0  0
 11 13  1  0  0  0  0
M  END
> <activity>
19.9

> <InChiKey>
DXPPIEDUBFUSEZ-UHFFFAOYSA-N

$$$$

  Mrv2220 08292413132D          

  7  6  0  0  0  0            999 V2000
    1.2375    2.1434    0.0000 C   0  0  0  0  0  0  0  0  0  0  0  0
    0.8250    1.4289    0.0000 C   0  0  0  0  0  0  0  0  0  0  0  0
   -0.0000    1.4289    0.0000 O   0  0  0  0  0  0  0  0  0  0  0  0
    1.2375    0.7145    0.0000 O   0  0  0  0  0  0  0  0  0  0  0  0
    0.8250    0.0000    0.0000 C   0  0  0  0  0  0  0  0  0  0  0  0
    1.2375   -0.7145    0.0000 C   0  0  0  0  0  0  0  0  0  0  0  0
    0.0000    0.0000    0.0000 C   0  0  0  0  0  0  0  0  0  0  0  0
  1  2  1  0  0  0  0
  2  3  2  0  0  0  0
  2  4  1  0  0  0  0
  4  5  1  0  0  0  0
  5  6  1  0  0  0  0
  5  7  1  0  0  0  0
M  END
> <activity>
11.2

> <InChiKey>
JMMWKPVZQRWMSS-UHFFFAOYSA-N

$$$$

  Mrv2220 08292413132D          

  6  5  0  0  0  0            999 V2000
    2.4750   -1.4289    0.0000 C   0  0  0  0  0  0  0  0  0  0  0  0
    2.0625   -0.7145    0.0000 C   0  0  0  0  0  0  0  0  0  0  0  0
    2.4750   -0.0000    0.0000 C   0  0  0  0  0  0  0  0  0  0  0  0
    1.2375   -0.7145    0.0000 O   0  0  0  0  0  0  0  0  0  0  0  0
    0.8250    0.0000    0.0000 C   0  0  0  0  0  0  0  0  0  0  0  0
    0.0000    0.0000    0.0000 O   0  0  0  0  0  0  0  0  0  0  0  0
  1  2  1  0  0  0  0
  2  3  1  0  0  0  0
  2  4  1  0  0  0  0
  4  5  1  0  0  0  0
  5  6  2  0  0  0  0
M  END
> <activity>
13.0

> <InChiKey>
RMOUBSOVHSONPZ-UHFFFAOYSA-N

$$$$

  Mrv2220 08292413132D          

 19 18  0  0  0  0            999 V2000
    7.9480    5.4138    0.0000 C   0  0  0  0  0  0  0  0  0  0  0  0
    8.6625    5.0013    0.0000 C   0  0  0  0  0  0  0  0  0  0  0  0
    9.3770    5.4138    0.0000 C   0  0  0  0  0  0  0  0  0  0  0  0
   10.0914    5.0013    0.0000 C   0  0  0  0  0  0  0  0  0  0  0  0
   10.8059    5.4138    0.0000 C   0  0  0  0  0  0  0  0  0  0  0  0
   11.5204    5.0013    0.0000 C   0  0  0  0  0  0  0  0  0  0  0  0
   12.2349    5.4138    0.0000 C   0  0  0  0  0  0  0  0  0  0  0  0
   12.9493    5.0013    0.0000 C   0  0  0  0  0  0  0  0  0  0  0  0
   13.6638    5.4138    0.0000 C   0  0  0  0  0  0  0  0  0  0  0  0
   14.3783    5.0013    0.0000 C   0  0  0  0  0  0  0  0  0  0  0  0
   15.0927    5.4138    0.0000 C   0  0  0  0  0  0  0  0  0  0  0  0
   15.8072    5.0013    0.0000 C   0  0  0  0  0  0  0  0  0  0  0  0
   16.5217    5.4138    0.0000 C   0  0  0  0  0  0  0  0  0  0  0  0
   17.2362    5.0013    0.0000 C   0  0  0  0  0  0  0  0  0  0  0  0
   17.2362    4.1763    0.0000 O   0  0  0  0  0  0  0  0  0  0  0  0
   17.9506    5.4138    0.0000 O   0  0  0  0  0  0  0  0  0  0  0  0
   18.6651    5.0013    0.0000 C   0  0  0  0  0  0  0  0  0  0  0  0
   19.3796    5.4138    0.0000 C   0  0  0  0  0  0  0  0  0  0  0  0
   18.6651    4.1763    0.0000 C   0  0  0  0  0  0  0  0  0  0  0  0
  1  2  1  0  0  0  0
  2  3  1  0  0  0  0
  3  4  1  0  0  0  0
  4  5  1  0  0  0  0
  5  6  1  0  0  0  0
  6  7  1  0  0  0  0
  7  8  1  0  0  0  0
  8  9  1  0  0  0  0
  9 10  1  0  0  0  0
 10 11  1  0  0  0  0
 11 12  1  0  0  0  0
 12 13  1  0  0  0  0
 13 14  1  0  0  0  0
 14 15  2  0  0  0  0
 14 16  1  0  0  0  0
 16 17  1  0  0  0  0
 17 18  1  0  0  0  0
 17 19  1  0  0  0  0
M  END
> <activity>
7.8

> <InChiKey>
AXISYYRBXTVTFY-UHFFFAOYSA-N

$$$$

  Mrv2220 08292413132D          

 11 11  0  0  0  0            999 V2000
    0.7145    2.0625    0.0000 C   0  0  0  0  0  0  0  0  0  0  0  0
    0.7145    1.2375    0.0000 C   0  0  0  0  0  0  0  0  0  0  0  0
    1.4289    0.8250    0.0000 C   0  0  0  0  0  0  0  0  0  0  0  0
    1.4289   -0.0000    0.0000 C   0  0  0  0  0  0  0  0  0  0  0  0
    0.7145   -0.4125    0.0000 C   0  0  0  0  0  0  0  0  0  0  0  0
    0.7145   -1.2375    0.0000 C   0  0  0  0  0  0  0  0  0  0  0  0
    1.4289   -1.6500    0.0000 C   0  0  0  0  0  0  0  0  0  0  0  0
   -0.0000   -1.6500    0.0000 C   0  0  0  0  0  0  0  0  0  0  0  0
    0.0000    0.0000    0.0000 C   0  0  0  0  0  0  0  0  0  0  0  0
    0.0000    0.8250    0.0000 C   0  0  0  0  0  0  0  0  0  0  0  0
   -0.7145    1.2375    0.0000 O   0  0  0  0  0  0  0  0  0  0  0  0
  1  2  1  0  0  0  0
  2  3  4  0  0  0  0
  3  4  4  0  0  0  0
  4  5  4  0  0  0  0
  5  6  1  0  0  0  0
  6  7  1  0  0  0  0
  6  8  1  0  0  0  0
  5  9  4  0  0  0  0
  9 10  4  0  0  0  0
  2 10  4  0  0  0  0
 10 11  1  0  0  0  0
M  END
> <activity>
80.5

> <InChiKey>
RECUKUPTGUEGMW-UHFFFAOYSA-N

$$$$

  Mrv2220 08292413132D          

 24 25  0  0  0  0            999 V2000
    0.7145   -0.4125    0.0000 C   0  0  0  0  0  0  0  0  0  0  0  0
    1.4289   -0.8250    0.0000 C   0  0  0  0  0  0  0  0  0  0  0  0
    1.4289   -1.6500    0.0000 C   0  0  0  0  0  0  0  0  0  0  0  0
    0.6039   -1.6500    0.0000 C   0  0  0  0  0  0  0  0  0  0  0  0
    2.2539   -1.6500    0.0000 C   0  0  0  0  0  0  0  0  0  0  0  0
    2.6664   -2.3645    0.0000 C   0  0  0  0  0  0  0  0  0  0  0  0
    1.4289   -2.4750    0.0000 C   0  0  0  0  0  0  0  0  0  0  0  0
    2.0964   -2.9599    0.0000 C   0  0  0  0  0  0  0  0  0  0  0  0
    1.8414   -3.7445    0.0000 C   0  0  0  0  0  0  0  0  0  0  0  0
    2.3264   -4.4120    0.0000 N   0  0  0  0  0  0  0  0  0  0  0  0
    3.1468   -4.3257    0.0000 C   0  0  0  0  0  0  0  0  0  0  0  0
    3.4824   -3.5721    0.0000 O   0  0  0  0  0  0  0  0  0  0  0  0
    3.6318   -4.9932    0.0000 C   0  0  0  0  0  0  0  0  0  0  0  0
    4.4522   -4.9070    0.0000 C   0  0  0  0  0  0  0  0  0  0  0  0
    4.7878   -4.1533    0.0000 O   0  0  0  0  0  0  0  0  0  0  0  0
    4.3029   -3.4858    0.0000 C   0  0  0  0  0  0  0  0  0  0  0  0
    4.9372   -5.5744    0.0000 C   0  0  0  0  0  0  0  0  0  0  0  0
    4.6016   -6.3281    0.0000 C   0  0  0  0  0  0  0  0  0  0  0  0
    3.7811   -6.4143    0.0000 C   0  0  0  0  0  0  0  0  0  0  0  0
    3.2962   -5.7469    0.0000 C   0  0  0  0  0  0  0  0  0  0  0  0
    2.4757   -5.8331    0.0000 O   0  0  0  0  0  0  0  0  0  0  0  0
    1.9908   -5.1657    0.0000 C   0  0  0  0  0  0  0  0  0  0  0  0
    1.0164   -3.7445    0.0000 O   0  0  0  0  0  0  0  0  0  0  0  0
    0.7615   -2.9599    0.0000 N   0  0  0  0  0  0  0  0  0  0  0  0
  1  2  1  0  0  0  0
  2  3  1  0  0  0  0
  3  4  1  0  0  0  0
  3  5  1  0  0  0  0
  5  6  1  0  0  0  0
  3  7  1  0  0  0  0
  7  8  4  0  0  0  0
  8  9  4  0  0  0  0
  9 10  1  0  0  0  0
 10 11  1  0  0  0  0
 11 12  2  0  0  0  0
 11 13  1  0  0  0  0
 13 14  4  0  0  0  0
 14 15  1  0  0  0  0
 15 16  1  0  0  0  0
 14 17  4  0  0  0  0
 17 18  4  0  0  0  0
 18 19  4  0  0  0  0
 19 20  4  0  0  0  0
 13 20  4  0  0  0  0
 20 21  1  0  0  0  0
 21 22  1  0  0  0  0
  9 23  4  0  0  0  0
 23 24  4  0  0  0  0
  7 24  4  0  0  0  0
M  END
> <activity>
79.6

> <InChiKey>
PMHURSZHKKJGBM-UHFFFAOYSA-N

$$$$

  Mrv2220 08292413132D          

 23 24  0  0  0  0            999 V2000
    2.8579    0.0000    0.0000 C   0  0  0  0  0  0  0  0  0  0  0  0
    2.1434   -0.4125    0.0000 O   0  0  0  0  0  0  0  0  0  0  0  0
    2.1434   -1.2375    0.0000 N   0  0  0  0  0  0  0  0  0  0  0  0
    1.4289   -1.6500    0.0000 C   0  0  0  0  0  0  0  0  0  0  0  0
    0.7145   -1.2375    0.0000 C   0  0  0  0  0  0  0  0  0  0  0  0
    0.0000   -1.6500    0.0000 O   0  0  0  0  0  0  0  0  0  0  0  0
    0.7145   -0.4125    0.0000 O   0  0  0  0  0  0  0  0  0  0  0  0
    0.0000    0.0000    0.0000 C   0  0  0  0  0  0  0  0  0  0  0  0
    1.4289   -2.4750    0.0000 C   0  0  0  0  0  0  0  0  0  0  0  0
    2.1434   -2.8875    0.0000 C   0  0  0  0  0  0  0  0  0  0  0  0
    2.1434   -3.7125    0.0000 C   0  0  0  0  0  0  0  0  0  0  0  0
    1.4289   -4.1250    0.0000 C   0  0  0  0  0  0  0  0  0  0  0  0
    0.7145   -3.7125    0.0000 C   0  0  0  0  0  0  0  0  0  0  0  0
    0.7145   -2.8875    0.0000 C   0  0  0  0  0  0  0  0  0  0  0  0
    0.0000   -2.4750    0.0000 C   0  0  0  0  0  0  0  0  0  0  0  0
   -0.7145   -2.8875    0.0000 O   0  0  0  0  0  0  0  0  0  0  0  0
   -1.4289   -2.4750    0.0000 C   0  0  0  0  0  0  0  0  0  0  0  0
   -2.1434   -2.8875    0.0000 C   0  0  0  0  0  0  0  0  0  0  0  0
   -2.8579   -2.4750    0.0000 C   0  0  0  0  0  0  0  0  0  0  0  0
   -2.8579   -1.6500    0.0000 C   0  0  0  0  0  0  0  0  0  0  0  0
   -2.1434   -1.2375    0.0000 C   0  0  0  0  0  0  0  0  0  0  0  0
   -1.4289   -1.6500    0.0000 C   0  0  0  0  0  0  0  0  0  0  0  0
   -0.7145   -1.2375    0.0000 C   0  0  0  0  0  0  0  0  0  0  0  0
  1  2  1  0  0  0  0
  3  2  1  4  0  0  0
  3  4  2  0  0  0  0
  4  5  1  0  0  0  0
  5  6  2  0  0  0  0
  5  7  1  0  0  0  0
  7  8  1  0  0  0  0
  4  9  1  0  0  0  0
  9 10  4  0  0  0  0
 10 11  4  0  0  0  0
 11 12  4  0  0  0  0
 12 13  4  0  0  0  0
 13 14  4  0  0  0  0
  9 14  4  0  0  0  0
 14 15  1  0  0  0  0
 15 16  1  0  0  0  0
 16 17  1  0  0  0  0
 17 18  4  0  0  0  0
 18 19  4  0  0  0  0
 19 20  4  0  0  0  0
 20 21  4  0  0  0  0
 21 22  4  0  0  0  0
 17 22  4  0  0  0  0
 22 23  1  0  0  0  0
M  END
> <activity>
94.0

> <InChiKey>
ZOTBXTZVPHCKPN-UHFFFAOYSA-N

$$$$

  Mrv2220 08292413132D          

 10  9  0  0  0  0            999 V2000
   -0.1914    0.7145    0.0000 O   0  0  0  0  0  0  0  0  0  0  0  0
    0.5230    1.1270    0.0000 C   0  0  0  0  0  0  0  0  0  0  0  0
    0.5230    1.9520    0.0000 O   0  0  0  0  0  0  0  0  0  0  0  0
    1.2375    0.7145    0.0000 C   0  0  0  0  0  0  0  0  0  0  0  0
    1.2375   -0.1105    0.0000 O   0  0  0  0  0  0  0  0  0  0  0  0
    1.9520    1.1270    0.0000 C   0  0  0  0  0  0  0  0  0  0  0  0
    1.9520    1.9520    0.0000 O   0  0  0  0  0  0  0  0  0  0  0  0
    2.6664    0.7145    0.0000 C   0  0  0  0  0  0  0  0  0  0  0  0
    3.3809    1.1270    0.0000 O   0  0  0  0  0  0  0  0  0  0  0  0
    2.6664   -0.1105    0.0000 O   0  0  0  0  0  0  0  0  0  0  0  0
  1  2  2  0  0  0  0
  2  3  1  0  0  0  0
  2  4  1  0  0  0  0
  4  5  1  0  0  0  0
  4  6  1  0  0  0  0
  6  7  1  0  0  0  0
  6  8  1  0  0  0  0
  8  9  2  0  0  0  0
  8 10  1  0  0  0  0
M  END
> <activity>
19.0

> <InChiKey>
FEWJPZIEWOKRBE-UHFFFAOYSA-N

$$$$

  Mrv2220 08292413132D          

 31 32  0  0  0  0            999 V2000
    2.1434   -6.1875    0.0000 C   0  0  0  0  0  0  0  0  0  0  0  0
    2.8579   -6.6000    0.0000 C   0  0  0  0  0  0  0  0  0  0  0  0
    3.5724   -6.1875    0.0000 O   0  0  0  0  0  0  0  0  0  0  0  0
    4.2868   -6.6000    0.0000 C   0  0  0  0  0  0  0  0  0  0  0  0
    4.2868   -7.4250    0.0000 O   0  0  0  0  0  0  0  0  0  0  0  0
    5.0013   -6.1875    0.0000 C   0  0  0  0  0  0  0  0  0  0  0  0
    5.0013   -5.3625    0.0000 C   0  0  0  0  0  0  0  0  0  0  0  0
    5.7158   -6.6000    0.0000 O   0  0  0  0  0  0  0  0  0  0  0  0
    6.4302   -6.1875    0.0000 C   0  0  0  0  0  0  0  0  0  0  0  0
    6.4302   -5.3625    0.0000 O   0  0  0  0  0  0  0  0  0  0  0  0
    7.1447   -6.6000    0.0000 C   0  0  0  0  0  0  0  0  0  0  0  0
    7.8592   -6.1875    0.0000 C   0  0  0  0  0  0  0  0  0  0  0  0
    8.5737   -6.6000    0.0000 C   0  0  0  0  0  0  0  0  0  0  0  0
    9.2881   -6.1875    0.0000 O   0  0  0  0  0  0  0  0  0  0  0  0
   10.0026   -6.6000    0.0000 C   0  0  0  0  0  0  0  0  0  0  0  0
   10.7171   -6.1875    0.0000 C   0  0  0  0  0  0  0  0  0  0  0  0
   11.4315   -6.6000    0.0000 C   0  0  0  0  0  0  0  0  0  0  0  0
   11.4315   -7.4250    0.0000 C   0  0  0  0  0  0  0  0  0  0  0  0
   12.1460   -7.8375    0.0000 C   0  0  0  0  0  0  0  0  0  0  0  0
   12.8605   -8.2500    0.0000 F   0  0  0  0  0  0  0  0  0  0  0  0
   11.7335   -8.5520    0.0000 F   0  0  0  0  0  0  0  0  0  0  0  0
   12.5585   -7.1230    0.0000 F   0  0  0  0  0  0  0  0  0  0  0  0
   10.7171   -7.8375    0.0000 C   0  0  0  0  0  0  0  0  0  0  0  0
   10.0026   -7.4250    0.0000 C   0  0  0  0  0  0  0  0  0  0  0  0
    9.2881   -7.8375    0.0000 Cl  0  0  0  0  0  0  0  0  0  0  0  0
    8.5737   -7.4250    0.0000 C   0  0  0  0  0  0  0  0  0  0  0  0
    7.8592   -7.8375    0.0000 C   0  0  0  0  0  0  0  0  0  0  0  0
    7.1447   -7.4250    0.0000 C   0  0  0  0  0  0  0  0  0  0  0  0
    6.4302   -7.8375    0.0000 N   0  3  0  0  0  0  0  0  0  0  0  0
    5.7158   -7.4250    0.0000 O   0  0  0  0  0  0  0  0  0  0  0  0
    6.4302   -8.6625    0.0000 O   0  5  0  0  0  0  0  0  0  0  0  0
  1  2  1  0  0  0  0
  2  3  1  0  0  0  0
  3  4  1  0  0  0  0
  4  5  2  0  0  0  0
  4  6  1  0  0  0  0
  6  7  1  0  0  0  0
  6  8  1  0  0  0  0
  8  9  1  0  0  0  0
  9 10  2  0  0  0  0
  9 11  1  0  0  0  0
 11 12  4  0  0  0  0
 12 13  4  0  0  0  0
 13 14  1  0  0  0  0
 14 15  1  0  0  0  0
 15 16  4  0  0  0  0
 16 17  4  0  0  0  0
 17 18  4  0  0  0  0
 18 19  1  0  0  0  0
 19 20  1  0  0  0  0
 19 21  1  0  0  0  0
 19 22  1  0  0  0  0
 18 23  4  0  0  0  0
 23 24  4  0  0  0  0
 15 24  4  0  0  0  0
 24 25  1  0  0  0  0
 13 26  4  0  0  0  0
 26 27  4  0  0  0  0
 27 28  4  0  0  0  0
 11 28  4  0  0  0  0
 28 29  1  0  0  0  0
 29 30  2  0  0  0  0
 29 31  1  0  0  0  0
M  CHG  2  29   1  31  -1
M  END
> <activity>
51.8

> <InChiKey>
CONWAEURSVPLRM-UHFFFAOYSA-N

$$$$

  Mrv2220 08292413132D          

 23 24  0  0  0  0            999 V2000
    1.4289    0.0000    0.0000 O   0  0  0  0  0  0  0  0  0  0  0  0
    2.1434   -0.4125    0.0000 C   0  0  0  0  0  0  0  0  0  0  0  0
    2.1434   -1.2375    0.0000 C   0  0  0  0  0  0  0  0  0  0  0  0
    1.4289   -1.6500    0.0000 O   0  0  0  0  0  0  0  0  0  0  0  0
    1.4289   -2.4750    0.0000 C   0  0  0  0  0  0  0  0  0  0  0  0
    0.7145   -2.8875    0.0000 O   0  0  0  0  0  0  0  0  0  0  0  0
    0.0000   -2.4750    0.0000 C   0  0  0  0  0  0  0  0  0  0  0  0
   -0.7145   -2.8875    0.0000 C   0  0  0  0  0  0  0  0  0  0  0  0
   -0.7145   -3.7125    0.0000 C   0  0  0  0  0  0  0  0  0  0  0  0
   -1.4289   -4.1250    0.0000 O   0  0  0  0  0  0  0  0  0  0  0  0
   -1.4289   -2.4750    0.0000 O   0  0  0  0  0  0  0  0  0  0  0  0
   -1.4289   -1.6500    0.0000 C   0  0  0  0  0  0  0  0  0  0  0  0
   -2.1434   -1.2375    0.0000 O   0  0  0  0  0  0  0  0  0  0  0  0
   -0.7145   -1.2375    0.0000 C   0  0  0  0  0  0  0  0  0  0  0  0
   -0.7145   -0.4125    0.0000 O   0  0  0  0  0  0  0  0  0  0  0  0
    0.0000   -1.6500    0.0000 C   0  0  0  0  0  0  0  0  0  0  0  0
    0.7145   -1.2375    0.0000 O   0  0  0  0  0  0  0  0  0  0  0  0
    2.1434   -2.8875    0.0000 C   0  0  0  0  0  0  0  0  0  0  0  0
    2.1434   -3.7125    0.0000 O   0  0  0  0  0  0  0  0  0  0  0  0
    2.8579   -2.4750    0.0000 C   0  0  0  0  0  0  0  0  0  0  0  0
    3.5724   -2.8875    0.0000 O   0  0  0  0  0  0  0  0  0  0  0  0
    2.8579   -1.6500    0.0000 C   0  0  0  0  0  0  0  0  0  0  0  0
    3.5724   -1.2375    0.0000 O   0  0  0  0  0  0  0  0  0  0  0  0
  1  2  1  0  0  0  0
  2  3  1  0  0  0  0
  3  4  1  0  0  0  0
  4  5  1  0  0  0  0
  5  6  1  0  0  0  0
  6  7  1  0  0  0  0
  7  8  1  0  0  0  0
  8  9  1  0  0  0  0
  9 10  1  0  0  0  0
  8 11  1  0  0  0  0
 11 12  1  0  0  0  0
 12 13  1  0  0  0  0
 12 14  1  0  0  0  0
 14 15  1  0  0  0  0
 14 16  1  0  0  0  0
  7 16  1  0  0  0  0
 16 17  1  0  0  0  0
  5 18  1  0  0  0  0
 18 19  1  0  0  0  0
 18 20  1  0  0  0  0
 20 21  1  0  0  0  0
 20 22  1  0  0  0  0
  3 22  1  0  0  0  0
 22 23  1  0  0  0  0
M  END
> <activity>
7.2

> <InChiKey>
GUBGYTABKSRVRQ-UHFFFAOYSA-N

$$$$

  Mrv2220 08292413132D          

 31 33  0  0  0  0            999 V2000
    2.5279   -4.1323    0.0000 C   0  0  0  0  0  0  0  0  0  0  0  0
    3.1599   -3.6020    0.0000 C   0  0  0  0  0  0  0  0  0  0  0  0
    3.7918   -4.1323    0.0000 C   0  0  0  0  0  0  0  0  0  0  0  0
    2.7474   -2.8875    0.0000 C   0  0  0  0  0  0  0  0  0  0  0  0
    2.0329   -2.4750    0.0000 C   0  0  0  0  0  0  0  0  0  0  0  0
    2.0329   -1.6500    0.0000 C   0  0  0  0  0  0  0  0  0  0  0  0
    2.7474   -1.2375    0.0000 Cl  0  0  0  0  0  0  0  0  0  0  0  0
    1.3184   -1.2375    0.0000 C   0  0  0  0  0  0  0  0  0  0  0  0
    0.6039   -0.8250    0.0000 F   0  0  0  0  0  0  0  0  0  0  0  0
    0.9059   -1.9520    0.0000 F   0  0  0  0  0  0  0  0  0  0  0  0
    1.7309   -0.5230    0.0000 F   0  0  0  0  0  0  0  0  0  0  0  0
    3.5724   -2.8875    0.0000 C   0  0  0  0  0  0  0  0  0  0  0  0
    4.2868   -2.4750    0.0000 C   0  0  0  0  0  0  0  0  0  0  0  0
    5.0013   -2.8875    0.0000 O   0  0  0  0  0  0  0  0  0  0  0  0
    4.2868   -1.6500    0.0000 O   0  0  0  0  0  0  0  0  0  0  0  0
    5.0013   -1.2375    0.0000 C   0  0  0  0  0  0  0  0  0  0  0  0
    5.7158   -1.6500    0.0000 C   0  0  0  0  0  0  0  0  0  0  0  0
    6.4302   -2.0625    0.0000 N   0  0  0  0  0  0  0  0  0  0  0  0
    5.0013   -0.4125    0.0000 C   0  0  0  0  0  0  0  0  0  0  0  0
    4.2868    0.0000    0.0000 C   0  0  0  0  0  0  0  0  0  0  0  0
    4.2868    0.8250    0.0000 C   0  0  0  0  0  0  0  0  0  0  0  0
    5.0013    1.2375    0.0000 C   0  0  0  0  0  0  0  0  0  0  0  0
    5.7158    0.8250    0.0000 C   0  0  0  0  0  0  0  0  0  0  0  0
    6.4302    1.2375    0.0000 O   0  0  0  0  0  0  0  0  0  0  0  0
    7.1447    0.8250    0.0000 C   0  0  0  0  0  0  0  0  0  0  0  0
    7.8592    1.2375    0.0000 C   0  0  0  0  0  0  0  0  0  0  0  0
    8.5737    0.8250    0.0000 C   0  0  0  0  0  0  0  0  0  0  0  0
    8.5737    0.0000    0.0000 C   0  0  0  0  0  0  0  0  0  0  0  0
    7.8592   -0.4125    0.0000 C   0  0  0  0  0  0  0  0  0  0  0  0
    7.1447    0.0000    0.0000 C   0  0  0  0  0  0  0  0  0  0  0  0
    5.7158    0.0000    0.0000 C   0  0  0  0  0  0  0  0  0  0  0  0
  1  2  1  0  0  0  0
  2  3  1  0  0  0  0
  2  4  1  0  0  0  0
  5  4  1  4  0  0  0
  5  6  2  0  0  0  0
  6  7  1  0  0  0  0
  6  8  1  0  0  0  0
  8  9  1  0  0  0  0
  8 10  1  0  0  0  0
  8 11  1  0  0  0  0
  4 12  1  0  0  0  0
  2 12  1  0  0  0  0
 12 13  1  0  0  0  0
 13 14  2  0  0  0  0
 13 15  1  0  0  0  0
 15 16  1  0  0  0  0
 16 17  1  0  0  0  0
 17 18  3  0  0  0  0
 16 19  1  0  0  0  0
 19 20  4  0  0  0  0
 20 21  4  0  0  0  0
 21 22  4  0  0  0  0
 22 23  4  0  0  0  0
 23 24  1  0  0  0  0
 24 25  1  0  0  0  0
 25 26  4  0  0  0  0
 26 27  4  0  0  0  0
 27 28  4  0  0  0  0
 28 29  4  0  0  0  0
 29 30  4  0  0  0  0
 25 30  4  0  0  0  0
 23 31  4  0  0  0  0
 19 31  4  0  0  0  0
M  END
> <activity>
57.4

> <InChiKey>
ZXQYGBMAQZUVMI-UHFFFAOYSA-N

$$$$

  Mrv2220 08292413132D          

 16 16  0  0  0  0            999 V2000
    0.7145    5.3625    0.0000 C   0  0  0  0  0  0  0  0  0  0  0  0
    0.7145    4.5375    0.0000 C   0  0  0  0  0  0  0  0  0  0  0  0
    1.4289    4.1250    0.0000 C   0  0  0  0  0  0  0  0  0  0  0  0
    0.0000    4.1250    0.0000 C   0  0  0  0  0  0  0  0  0  0  0  0
    0.0000    3.3000    0.0000 C   0  0  0  0  0  0  0  0  0  0  0  0
    0.7145    2.8875    0.0000 C   0  0  0  0  0  0  0  0  0  0  0  0
    0.7145    2.0625    0.0000 C   0  0  0  0  0  0  0  0  0  0  0  0
   -0.1105    2.0625    0.0000 C   0  0  0  0  0  0  0  0  0  0  0  0
    1.5395    2.0625    0.0000 O   0  0  0  0  0  0  0  0  0  0  0  0
    0.7145    1.2375    0.0000 C   0  0  0  0  0  0  0  0  0  0  0  0
    1.4289    0.8250    0.0000 C   0  0  0  0  0  0  0  0  0  0  0  0
    1.4289   -0.0000    0.0000 C   0  0  0  0  0  0  0  0  0  0  0  0
    0.7145   -0.4125    0.0000 C   0  0  0  0  0  0  0  0  0  0  0  0
    0.7145   -1.2375    0.0000 C   0  0  0  0  0  0  0  0  0  0  0  0
    0.0000    0.0000    0.0000 C   0  0  0  0  0  0  0  0  0  0  0  0
    0.0000    0.8250    0.0000 C   0  0  0  0  0  0  0  0  0  0  0  0
  1  2  1  0  0  0  0
  2  3  1  0  0  0  0
  2  4  2  0  0  0  0
  4  5  1  0  0  0  0
  5  6  1  0  0  0  0
  6  7  1  0  0  0  0
  7  8  1  0  0  0  0
  7  9  1  0  0  0  0
  7 10  1  0  0  0  0
 10 11  1  0  0  0  0
 11 12  1  0  0  0  0
 12 13  2  0  0  0  0
 13 14  1  0  0  0  0
 13 15  1  0  0  0  0
 15 16  1  0  0  0  0
 10 16  1  0  0  0  0
M  END
> <activity>
41.0

> <InChiKey>
RGZSQWQPBWRIAQ-UHFFFAOYSA-N

$$$$

  Mrv2220 08292413132D          

 23 26  0  0  0  0            999 V2000
    1.4440   -2.7799    0.0000 C   0  0  0  0  0  0  0  0  0  0  0  0
    2.2561   -2.6347    0.0000 C   0  0  0  0  0  0  0  0  0  0  0  0
    3.0683   -2.4895    0.0000 C   0  0  0  0  0  0  0  0  0  0  0  0
    3.1278   -3.3123    0.0000 O   0  0  0  0  0  0  0  0  0  0  0  0
    2.8390   -1.6970    0.0000 C   0  0  0  0  0  0  0  0  0  0  0  0
    3.5218   -1.2340    0.0000 C   0  0  0  0  0  0  0  0  0  0  0  0
    4.1731   -1.7404    0.0000 C   0  0  0  0  0  0  0  0  0  0  0  0
    4.9853   -1.5952    0.0000 C   0  0  0  0  0  0  0  0  0  0  0  0
    5.2655   -0.8192    0.0000 C   0  0  0  0  0  0  0  0  0  0  0  0
    6.0777   -0.6740    0.0000 C   0  0  0  0  0  0  0  0  0  0  0  0
    6.6095   -1.3047    0.0000 C   0  0  0  0  0  0  0  0  0  0  0  0
    7.4216   -1.1595    0.0000 C   0  0  0  0  0  0  0  0  0  0  0  0
    7.9534   -1.7902    0.0000 C   0  0  0  0  0  0  0  0  0  0  0  0
    8.7655   -1.6450    0.0000 O   0  0  0  0  0  0  0  0  0  0  0  0
    7.6731   -2.5662    0.0000 C   0  0  0  0  0  0  0  0  0  0  0  0
    6.8610   -2.7114    0.0000 C   0  0  0  0  0  0  0  0  0  0  0  0
    6.3292   -2.0807    0.0000 C   0  0  0  0  0  0  0  0  0  0  0  0
    5.5171   -2.2259    0.0000 C   0  0  0  0  0  0  0  0  0  0  0  0
    5.2368   -3.0018    0.0000 C   0  0  0  0  0  0  0  0  0  0  0  0
    4.4247   -3.1470    0.0000 C   0  0  0  0  0  0  0  0  0  0  0  0
    3.8928   -2.5163    0.0000 C   0  0  0  0  0  0  0  0  0  0  0  0
    3.5330   -3.2587    0.0000 C   0  0  0  0  0  0  0  0  0  0  0  0
    3.9959   -3.9415    0.0000 C   0  0  0  0  0  0  0  0  0  0  0  0
  1  2  3  0  0  0  0
  2  3  1  0  0  0  0
  3  4  1  0  0  0  0
  3  5  1  0  0  0  0
  5  6  1  0  0  0  0
  6  7  1  0  0  0  0
  7  8  1  0  0  0  0
  8  9  1  0  0  0  0
  9 10  1  0  0  0  0
 10 11  1  0  0  0  0
 11 12  2  0  0  0  0
 12 13  1  0  0  0  0
 13 14  2  0  0  0  0
 13 15  1  0  0  0  0
 15 16  1  0  0  0  0
 16 17  1  0  0  0  0
 11 17  1  0  0  0  0
 17 18  1  0  0  0  0
  8 18  1  0  0  0  0
 18 19  1  0  0  0  0
 19 20  1  0  0  0  0
 20 21  1  0  0  0  0
  7 21  1  0  0  0  0
  3 21  1  0  0  0  0
 21 22  1  0  0  0  0
 22 23  1  0  0  0  0
M  END
> <activity>
18.0

> <InChiKey>
WWYNJERNGUHSAO-UHFFFAOYSA-N

$$$$

  Mrv2220 08292413132D          

 11 10  0  0  0  0            999 V2000
    3.7125    2.1434    0.0000 C   0  0  0  0  0  0  0  0  0  0  0  0
    2.8875    2.1434    0.0000 C   0  0  0  0  0  0  0  0  0  0  0  0
    2.4750    1.4289    0.0000 C   0  0  0  0  0  0  0  0  0  0  0  0
    1.7605    1.8414    0.0000 C   0  0  0  0  0  0  0  0  0  0  0  0
    3.1895    1.0164    0.0000 O   0  0  0  0  0  0  0  0  0  0  0  0
    2.0625    0.7145    0.0000 C   0  0  0  0  0  0  0  0  0  0  0  0
    1.2375    0.7145    0.0000 C   0  0  0  0  0  0  0  0  0  0  0  0
    0.8250    0.0000    0.0000 C   0  0  0  0  0  0  0  0  0  0  0  0
    0.0000    0.0000    0.0000 C   0  0  0  0  0  0  0  0  0  0  0  0
   -0.4125   -0.7145    0.0000 C   0  0  0  0  0  0  0  0  0  0  0  0
   -0.4125    0.7145    0.0000 C   0  0  0  0  0  0  0  0  0  0  0  0
  1  2  2  0  0  0  0
  2  3  1  0  0  0  0
  3  4  1  0  0  0  0
  3  5  1  0  0  0  0
  3  6  1  0  0  0  0
  6  7  1  0  0  0  0
  7  8  1  0  0  0  0
  8  9  2  0  0  0  0
  9 10  1  0  0  0  0
  9 11  1  0  0  0  0
M  END
> <activity>
13.0

> <InChiKey>
CDOSHBSSFJOMGT-UHFFFAOYSA-N

$$$$

  Mrv2220 08292413132D          

 14 13  0  0  0  0            999 V2000
    1.0461    2.2539    0.0000 C   0  0  0  0  0  0  0  0  0  0  0  0
    1.7605    1.8414    0.0000 C   0  0  0  0  0  0  0  0  0  0  0  0
    2.4750    2.2539    0.0000 C   0  0  0  0  0  0  0  0  0  0  0  0
    3.1895    2.6664    0.0000 C   0  0  0  0  0  0  0  0  0  0  0  0
    2.8875    1.5395    0.0000 C   0  0  0  0  0  0  0  0  0  0  0  0
    2.4750    0.8250    0.0000 C   0  0  0  0  0  0  0  0  0  0  0  0
    2.8875    0.1105    0.0000 C   0  0  0  0  0  0  0  0  0  0  0  0
    2.4750   -0.6039    0.0000 C   0  0  0  0  0  0  0  0  0  0  0  0
    2.8875   -1.3184    0.0000 C   0  0  0  0  0  0  0  0  0  0  0  0
    1.6500   -0.6039    0.0000 C   0  0  0  0  0  0  0  0  0  0  0  0
    2.0625    2.9684    0.0000 O   0  0  0  0  0  0  0  0  0  0  0  0
    2.4750    3.6829    0.0000 C   0  0  0  0  0  0  0  0  0  0  0  0
    2.0625    4.3974    0.0000 C   0  0  0  0  0  0  0  0  0  0  0  0
    3.3000    3.6829    0.0000 O   0  0  0  0  0  0  0  0  0  0  0  0
  1  2  2  0  0  0  0
  2  3  1  0  0  0  0
  3  4  1  0  0  0  0
  3  5  1  0  0  0  0
  5  6  1  0  0  0  0
  6  7  1  0  0  0  0
  7  8  2  0  0  0  0
  8  9  1  0  0  0  0
  8 10  1  0  0  0  0
  3 11  1  0  0  0  0
 11 12  1  0  0  0  0
 12 13  1  0  0  0  0
 12 14  2  0  0  0  0
M  END
> <activity>
15.4

> <InChiKey>
UWKAYLJWKGQEPM-UHFFFAOYSA-N

$$$$

  Mrv2220 08292413132D          

 20 19  0  0  0  0            999 V2000
   -2.0033    6.2684    0.0000 C   0  0  0  0  0  0  0  0  0  0  0  0
   -1.2888    5.8559    0.0000 C   0  0  0  0  0  0  0  0  0  0  0  0
   -1.2888    5.0309    0.0000 C   0  0  0  0  0  0  0  0  0  0  0  0
   -0.5743    4.6184    0.0000 C   0  0  0  0  0  0  0  0  0  0  0  0
   -0.5743    3.7934    0.0000 C   0  0  0  0  0  0  0  0  0  0  0  0
    0.1401    3.3809    0.0000 C   0  0  0  0  0  0  0  0  0  0  0  0
    0.1401    2.5559    0.0000 C   0  0  0  0  0  0  0  0  0  0  0  0
    0.8546    2.1434    0.0000 C   0  0  0  0  0  0  0  0  0  0  0  0
    1.5691    2.5559    0.0000 C   0  0  0  0  0  0  0  0  0  0  0  0
    2.2836    2.1434    0.0000 C   0  0  0  0  0  0  0  0  0  0  0  0
    2.9980    2.5559    0.0000 C   0  0  0  0  0  0  0  0  0  0  0  0
    3.7125    2.1434    0.0000 C   0  0  0  0  0  0  0  0  0  0  0  0
    4.4270    2.5559    0.0000 C   0  0  0  0  0  0  0  0  0  0  0  0
    5.1414    2.1434    0.0000 C   0  0  0  0  0  0  0  0  0  0  0  0
    5.8559    2.5559    0.0000 C   0  0  0  0  0  0  0  0  0  0  0  0
    6.5704    2.1434    0.0000 C   0  0  0  0  0  0  0  0  0  0  0  0
    7.2849    2.5559    0.0000 C   0  0  0  0  0  0  0  0  0  0  0  0
    7.9993    2.1434    0.0000 C   0  0  0  0  0  0  0  0  0  0  0  0
    8.7138    2.5559    0.0000 O   0  0  0  0  0  0  0  0  0  0  0  0
    7.9993    1.3184    0.0000 O   0  0  0  0  0  0  0  0  0  0  0  0
  1  2  1  0  0  0  0
  2  3  1  0  0  0  0
  3  4  1  0  0  0  0
  4  5  1  0  0  0  0
  6  5  1  4  0  0  0
  6  7  2  0  0  0  0
  7  8  1  0  0  0  0
  9  8  1  4  0  0  0
  9 10  2  0  0  0  0
 10 11  1  0  0  0  0
 11 12  1  0  0  0  0
 12 13  1  0  0  0  0
 13 14  1  0  0  0  0
 14 15  1  0  0  0  0
 15 16  1  0  0  0  0
 16 17  1  0  0  0  0
 17 18  1  0  0  0  0
 18 19  2  0  0  0  0
 18 20  1  0  0  0  0
M  END
> <activity>
74.5

> <InChiKey>
OYHQOLUKZRVURQ-UHFFFAOYSA-N

$$$$

  Mrv2220 08292413132D          

 15 15  0  0  0  0            999 V2000
    0.0000   -2.4750    0.0000 C   0  0  0  0  0  0  0  0  0  0  0  0
    0.7145   -2.8875    0.0000 O   0  0  0  0  0  0  0  0  0  0  0  0
    1.4289   -2.4750    0.0000 N   0  0  0  0  0  0  0  0  0  0  0  0
    1.4289   -1.6500    0.0000 C   0  0  0  0  0  0  0  0  0  0  0  0
    2.1434   -2.8875    0.0000 C   0  0  0  0  0  0  0  0  0  0  0  0
    2.1434   -3.7125    0.0000 O   0  0  0  0  0  0  0  0  0  0  0  0
    2.8579   -2.4750    0.0000 N   0  0  0  0  0  0  0  0  0  0  0  0
    3.5724   -2.8875    0.0000 C   0  0  0  0  0  0  0  0  0  0  0  0
    4.2868   -2.4750    0.0000 C   0  0  0  0  0  0  0  0  0  0  0  0
    5.0013   -2.8875    0.0000 C   0  0  0  0  0  0  0  0  0  0  0  0
    5.0013   -3.7125    0.0000 C   0  0  0  0  0  0  0  0  0  0  0  0
    5.7158   -4.1250    0.0000 Cl  0  0  0  0  0  0  0  0  0  0  0  0
    4.2868   -4.1250    0.0000 C   0  0  0  0  0  0  0  0  0  0  0  0
    4.2868   -4.9500    0.0000 Cl  0  0  0  0  0  0  0  0  0  0  0  0
    3.5724   -3.7125    0.0000 C   0  0  0  0  0  0  0  0  0  0  0  0
  1  2  1  0  0  0  0
  2  3  1  0  0  0  0
  3  4  1  0  0  0  0
  3  5  1  0  0  0  0
  5  6  2  0  0  0  0
  5  7  1  0  0  0  0
  7  8  1  0  0  0  0
  8  9  4  0  0  0  0
  9 10  4  0  0  0  0
 10 11  4  0  0  0  0
 11 12  1  0  0  0  0
 11 13  4  0  0  0  0
 13 14  1  0  0  0  0
 13 15  4  0  0  0  0
  8 15  4  0  0  0  0
M  END
> <activity>
60.2

> <InChiKey>
XKJMBINCVNINCA-UHFFFAOYSA-N

$$$$

  Mrv2220 08292413132D          

  8  8  0  0  0  0            999 V2000
    0.7145    2.0625    0.0000 C   0  0  0  0  0  0  0  0  0  0  0  0
    0.7145    1.2375    0.0000 C   0  0  0  0  0  0  0  0  0  0  0  0
    1.4289    0.8250    0.0000 C   0  0  0  0  0  0  0  0  0  0  0  0
    1.4289   -0.0000    0.0000 C   0  0  0  0  0  0  0  0  0  0  0  0
    0.7145   -0.4125    0.0000 C   0  0  0  0  0  0  0  0  0  0  0  0
    0.0000    0.0000    0.0000 C   0  0  0  0  0  0  0  0  0  0  0  0
   -0.7145   -0.4125    0.0000 O   0  0  0  0  0  0  0  0  0  0  0  0
    0.0000    0.8250    0.0000 C   0  0  0  0  0  0  0  0  0  0  0  0
  1  2  1  0  0  0  0
  2  3  4  0  0  0  0
  3  4  4  0  0  0  0
  4  5  4  0  0  0  0
  5  6  4  0  0  0  0
  6  7  1  0  0  0  0
  6  8  4  0  0  0  0
  2  8  4  0  0  0  0
M  END
> <activity>
30.6

> <InChiKey>
RLSSMJSEOOYNOY-UHFFFAOYSA-N

$$$$

  Mrv2220 08292413132D          

  8  8  0  0  0  0            999 V2000
    0.7145    2.0625    0.0000 C   0  0  0  0  0  0  0  0  0  0  0  0
    0.7145    1.2375    0.0000 C   0  0  0  0  0  0  0  0  0  0  0  0
    1.4289    0.8250    0.0000 C   0  0  0  0  0  0  0  0  0  0  0  0
    1.4289   -0.0000    0.0000 C   0  0  0  0  0  0  0  0  0  0  0  0
    0.7145   -0.4125    0.0000 C   0  0  0  0  0  0  0  0  0  0  0  0
    0.0000    0.0000    0.0000 C   0  0  0  0  0  0  0  0  0  0  0  0
   -0.7145   -0.4125    0.0000 C   0  0  0  0  0  0  0  0  0  0  0  0
    0.0000    0.8250    0.0000 C   0  0  0  0  0  0  0  0  0  0  0  0
  1  2  1  0  0  0  0
  2  3  4  0  0  0  0
  3  4  4  0  0  0  0
  4  5  4  0  0  0  0
  5  6  4  0  0  0  0
  6  7  1  0  0  0  0
  6  8  4  0  0  0  0
  2  8  4  0  0  0  0
M  END
> <activity>
34.2

> <InChiKey>
IVSZLXZYQVIEFR-UHFFFAOYSA-N

$$$$

  Mrv2220 08292413132D          

 19 18  0  0  0  0            999 V2000
   -0.1914   -0.7145    0.0000 C   0  0  0  0  0  0  0  0  0  0  0  0
    0.5230   -1.1270    0.0000 C   0  0  0  0  0  0  0  0  0  0  0  0
    1.2375   -0.7145    0.0000 O   0  0  0  0  0  0  0  0  0  0  0  0
    1.9520   -1.1270    0.0000 C   0  0  0  0  0  0  0  0  0  0  0  0
    1.9520   -1.9520    0.0000 O   0  0  0  0  0  0  0  0  0  0  0  0
    2.6664   -0.7145    0.0000 C   0  0  0  0  0  0  0  0  0  0  0  0
    3.3809   -1.1270    0.0000 C   0  0  0  0  0  0  0  0  0  0  0  0
    4.0954   -0.7145    0.0000 S   0  0  0  0  0  0  0  0  0  0  0  0
    4.8099   -1.1270    0.0000 P   0  0  0  0  0  0  0  0  0  0  0  0
    4.3974   -1.8414    0.0000 S   0  0  0  0  0  0  0  0  0  0  0  0
    5.5243   -1.5395    0.0000 O   0  0  0  0  0  0  0  0  0  0  0  0
    6.2388   -1.1270    0.0000 C   0  0  0  0  0  0  0  0  0  0  0  0
    5.2224   -0.4125    0.0000 O   0  0  0  0  0  0  0  0  0  0  0  0
    6.0474   -0.4125    0.0000 C   0  0  0  0  0  0  0  0  0  0  0  0
    3.3809   -1.9520    0.0000 C   0  0  0  0  0  0  0  0  0  0  0  0
    4.0954   -2.3645    0.0000 O   0  0  0  0  0  0  0  0  0  0  0  0
    2.6664   -2.3645    0.0000 O   0  0  0  0  0  0  0  0  0  0  0  0
    2.6664   -3.1895    0.0000 C   0  0  0  0  0  0  0  0  0  0  0  0
    1.9520   -3.6020    0.0000 C   0  0  0  0  0  0  0  0  0  0  0  0
  1  2  1  0  0  0  0
  2  3  1  0  0  0  0
  3  4  1  0  0  0  0
  4  5  2  0  0  0  0
  4  6  1  0  0  0  0
  6  7  1  0  0  0  0
  7  8  1  0  0  0  0
  8  9  1  0  0  0  0
  9 10  2  0  0  0  0
  9 11  1  0  0  0  0
 11 12  1  0  0  0  0
  9 13  1  0  0  0  0
 13 14  1  0  0  0  0
  7 15  1  0  0  0  0
 15 16  2  0  0  0  0
 15 17  1  0  0  0  0
 17 18  1  0  0  0  0
 18 19  1  0  0  0  0
M  END
> <activity>
75.0

> <InChiKey>
JXSJBGJIGXNWCI-UHFFFAOYSA-N

$$$$

  Mrv2220 08292413132D          

  8  8  0  0  0  0            999 V2000
    0.7145    2.0625    0.0000 O   0  0  0  0  0  0  0  0  0  0  0  0
    0.7145    1.2375    0.0000 C   0  0  0  0  0  0  0  0  0  0  0  0
    1.4289    0.8250    0.0000 C   0  0  0  0  0  0  0  0  0  0  0  0
    1.4289   -0.0000    0.0000 C   0  0  0  0  0  0  0  0  0  0  0  0
    0.7145   -0.4125    0.0000 C   0  0  0  0  0  0  0  0  0  0  0  0
    0.7145   -1.2375    0.0000 O   0  0  0  0  0  0  0  0  0  0  0  0
    0.0000    0.0000    0.0000 N   0  0  0  0  0  0  0  0  0  0  0  0
    0.0000    0.8250    0.0000 N   0  0  0  0  0  0  0  0  0  0  0  0
  1  2  2  0  0  0  0
  2  3  4  0  0  0  0
  3  4  4  0  0  0  0
  4  5  4  0  0  0  0
  5  6  2  0  0  0  0
  5  7  4  0  0  0  0
  7  8  4  0  0  0  0
  2  8  4  0  0  0  0
M  STY  2   1 DAT   2 DAT
M  SAL   1  1   7
M  SDT   1 MRV_IMPLICIT_H                                        
M  SDD   1     0.5304   -0.4125    DR    ALL  0       0  
M  SED   1 IMPL_H1
M  SAL   2  1   8
M  SDT   2 MRV_IMPLICIT_H                                        
M  SDD   2     0.5304   -0.4125    DR    ALL  0       0  
M  SED   2 IMPL_H1
M  END
> <activity>
11.9

> <InChiKey>
BGRDGMRNKXEXQD-UHFFFAOYSA-N

$$$$

  Mrv2220 08292413132D          

  9  8  0  0  0  0            999 V2000
   -0.1914    0.7145    0.0000 O   0  0  0  0  0  0  0  0  0  0  0  0
    0.5230    1.1270    0.0000 C   0  0  0  0  0  0  0  0  0  0  0  0
    0.5230    1.9520    0.0000 O   0  0  0  0  0  0  0  0  0  0  0  0
    1.2375    0.7145    0.0000 C   0  0  0  0  0  0  0  0  0  0  0  0
    1.9520    1.1270    0.0000 C   0  0  0  0  0  0  0  0  0  0  0  0
    1.9520    1.9520    0.0000 O   0  0  0  0  0  0  0  0  0  0  0  0
    2.6664    0.7145    0.0000 C   0  0  0  0  0  0  0  0  0  0  0  0
    3.3809    1.1270    0.0000 O   0  0  0  0  0  0  0  0  0  0  0  0
    2.6664   -0.1105    0.0000 O   0  0  0  0  0  0  0  0  0  0  0  0
  1  2  2  0  0  0  0
  2  3  1  0  0  0  0
  2  4  1  0  0  0  0
  4  5  1  0  0  0  0
  5  6  1  0  0  0  0
  5  7  1  0  0  0  0
  7  8  2  0  0  0  0
  7  9  1  0  0  0  0
M  END
> <activity>
-18.7

> <InChiKey>
BJEPYKJPYRNKOW-UHFFFAOYSA-N

$$$$

  Mrv2220 08292413132D          

 20 20  0  0  0  0            999 V2000
    2.1434   -5.3625    0.0000 C   0  0  0  0  0  0  0  0  0  0  0  0
    2.8579   -4.9500    0.0000 C   0  0  0  0  0  0  0  0  0  0  0  0
    3.5724   -5.3625    0.0000 C   0  0  0  0  0  0  0  0  0  0  0  0
    4.2868   -4.9500    0.0000 C   0  0  0  0  0  0  0  0  0  0  0  0
    5.0013   -5.3625    0.0000 C   0  0  0  0  0  0  0  0  0  0  0  0
    5.0013   -6.1875    0.0000 C   0  0  0  0  0  0  0  0  0  0  0  0
    5.7158   -6.6000    0.0000 C   0  0  0  0  0  0  0  0  0  0  0  0
    5.7158   -4.9500    0.0000 C   0  0  0  0  0  0  0  0  0  0  0  0
    6.4302   -5.3625    0.0000 O   0  0  0  0  0  0  0  0  0  0  0  0
    7.1447   -4.9500    0.0000 C   0  0  0  0  0  0  0  0  0  0  0  0
    7.1447   -4.1250    0.0000 O   0  0  0  0  0  0  0  0  0  0  0  0
    7.8592   -5.3625    0.0000 C   0  0  0  0  0  0  0  0  0  0  0  0
    8.5737   -4.9500    0.0000 C   0  0  0  0  0  0  0  0  0  0  0  0
    9.2881   -5.3625    0.0000 C   0  0  0  0  0  0  0  0  0  0  0  0
    9.2881   -6.1875    0.0000 C   0  0  0  0  0  0  0  0  0  0  0  0
    8.5737   -6.6000    0.0000 C   0  0  0  0  0  0  0  0  0  0  0  0
    7.8592   -6.1875    0.0000 C   0  0  0  0  0  0  0  0  0  0  0  0
    7.1447   -6.6000    0.0000 C   0  0  0  0  0  0  0  0  0  0  0  0
    6.4302   -6.1875    0.0000 O   0  0  0  0  0  0  0  0  0  0  0  0
    7.1447   -7.4250    0.0000 O   0  0  0  0  0  0  0  0  0  0  0  0
  1  2  1  0  0  0  0
  2  3  1  0  0  0  0
  3  4  1  0  0  0  0
  4  5  1  0  0  0  0
  5  6  1  0  0  0  0
  6  7  1  0  0  0  0
  5  8  1  0  0  0  0
  8  9  1  0  0  0  0
  9 10  1  0  0  0  0
 10 11  2  0  0  0  0
 10 12  1  0  0  0  0
 12 13  4  0  0  0  0
 13 14  4  0  0  0  0
 14 15  4  0  0  0  0
 15 16  4  0  0  0  0
 16 17  4  0  0  0  0
 12 17  4  0  0  0  0
 17 18  1  0  0  0  0
 18 19  2  0  0  0  0
 18 20  1  0  0  0  0
M  END
> <activity>
99.0

> <InChiKey>
DJDSLBVSSOQSLW-UHFFFAOYSA-N

$$$$

  Mrv2220 08292413132D          

 20 21  0  0  0  0            999 V2000
    0.0000   -1.6500    0.0000 C   0  0  0  0  0  0  0  0  0  0  0  0
    0.0000   -2.4750    0.0000 C   0  0  0  0  0  0  0  0  0  0  0  0
    0.7145   -2.8875    0.0000 C   0  0  0  0  0  0  0  0  0  0  0  0
    0.7145   -3.7125    0.0000 C   0  0  0  0  0  0  0  0  0  0  0  0
    0.0000   -4.1250    0.0000 C   0  0  0  0  0  0  0  0  0  0  0  0
   -0.7145   -3.7125    0.0000 C   0  0  0  0  0  0  0  0  0  0  0  0
   -0.7145   -2.8875    0.0000 C   0  0  0  0  0  0  0  0  0  0  0  0
   -1.4289   -2.4750    0.0000 C   0  0  0  0  0  0  0  0  0  0  0  0
   -2.1434   -2.8875    0.0000 O   0  0  0  0  0  0  0  0  0  0  0  0
   -1.4289   -1.6500    0.0000 N   0  0  0  0  0  0  0  0  0  0  0  0
   -2.1434   -1.2375    0.0000 C   0  0  0  0  0  0  0  0  0  0  0  0
   -2.8579   -1.6500    0.0000 C   0  0  0  0  0  0  0  0  0  0  0  0
   -3.5724   -1.2375    0.0000 C   0  0  0  0  0  0  0  0  0  0  0  0
   -3.5724   -0.4125    0.0000 C   0  0  0  0  0  0  0  0  0  0  0  0
   -2.8579    0.0000    0.0000 C   0  0  0  0  0  0  0  0  0  0  0  0
   -2.8579    0.8250    0.0000 O   0  0  0  0  0  0  0  0  0  0  0  0
   -2.1434    1.2375    0.0000 C   0  0  0  0  0  0  0  0  0  0  0  0
   -2.1434    2.0625    0.0000 C   0  0  0  0  0  0  0  0  0  0  0  0
   -1.4289    0.8250    0.0000 C   0  0  0  0  0  0  0  0  0  0  0  0
   -2.1434   -0.4125    0.0000 C   0  0  0  0  0  0  0  0  0  0  0  0
  1  2  1  0  0  0  0
  2  3  4  0  0  0  0
  3  4  4  0  0  0  0
  4  5  4  0  0  0  0
  5  6  4  0  0  0  0
  6  7  4  0  0  0  0
  2  7  4  0  0  0  0
  7  8  1  0  0  0  0
  8  9  2  0  0  0  0
  8 10  1  0  0  0  0
 10 11  1  0  0  0  0
 11 12  4  0  0  0  0
 12 13  4  0  0  0  0
 13 14  4  0  0  0  0
 14 15  4  0  0  0  0
 15 16  1  0  0  0  0
 16 17  1  0  0  0  0
 17 18  1  0  0  0  0
 17 19  1  0  0  0  0
 15 20  4  0  0  0  0
 11 20  4  0  0  0  0
M  END
> <activity>
59.8

> <InChiKey>
BCTQJXQXJVLSIG-UHFFFAOYSA-N

$$$$

  Mrv2220 08292413132D          

 20 21  0  0  0  0            999 V2000
    0.0000   -1.6500    0.0000 C   0  0  0  0  0  0  0  0  0  0  0  0
    0.7145   -2.0625    0.0000 C   0  0  0  0  0  0  0  0  0  0  0  0
    1.4289   -1.6500    0.0000 C   0  0  0  0  0  0  0  0  0  0  0  0
    1.4289   -0.8250    0.0000 C   0  0  0  0  0  0  0  0  0  0  0  0
    0.7145   -0.4125    0.0000 C   0  0  0  0  0  0  0  0  0  0  0  0
    0.7145    0.4125    0.0000 C   0  0  0  0  0  0  0  0  0  0  0  0
    1.4289    0.8250    0.0000 C   0  0  0  0  0  0  0  0  0  0  0  0
    1.4289    1.6500    0.0000 O   0  0  0  0  0  0  0  0  0  0  0  0
    2.1434    0.4125    0.0000 C   0  0  0  0  0  0  0  0  0  0  0  0
    2.1434   -0.4125    0.0000 C   0  0  0  0  0  0  0  0  0  0  0  0
    2.1434   -2.0625    0.0000 C   0  0  0  0  0  0  0  0  0  0  0  0
    2.8579   -1.6500    0.0000 C   0  0  0  0  0  0  0  0  0  0  0  0
    3.5724   -2.0625    0.0000 C   0  0  0  0  0  0  0  0  0  0  0  0
    2.1434   -2.8875    0.0000 C   0  0  0  0  0  0  0  0  0  0  0  0
    2.8579   -3.3000    0.0000 C   0  0  0  0  0  0  0  0  0  0  0  0
    2.8579   -4.1250    0.0000 C   0  0  0  0  0  0  0  0  0  0  0  0
    2.1434   -4.5375    0.0000 C   0  0  0  0  0  0  0  0  0  0  0  0
    2.1434   -5.3625    0.0000 O   0  0  0  0  0  0  0  0  0  0  0  0
    1.4289   -4.1250    0.0000 C   0  0  0  0  0  0  0  0  0  0  0  0
    1.4289   -3.3000    0.0000 C   0  0  0  0  0  0  0  0  0  0  0  0
  1  2  1  0  0  0  0
  2  3  1  0  0  0  0
  3  4  1  0  0  0  0
  4  5  4  0  0  0  0
  5  6  4  0  0  0  0
  6  7  4  0  0  0  0
  7  8  1  0  0  0  0
  7  9  4  0  0  0  0
  9 10  4  0  0  0  0
  4 10  4  0  0  0  0
  3 11  1  0  0  0  0
 11 12  1  0  0  0  0
 12 13  1  0  0  0  0
 11 14  1  0  0  0  0
 14 15  4  0  0  0  0
 15 16  4  0  0  0  0
 16 17  4  0  0  0  0
 17 18  1  0  0  0  0
 17 19  4  0  0  0  0
 19 20  4  0  0  0  0
 14 20  4  0  0  0  0
M  END
> <activity>
102.0

> <InChiKey>
PBBGSZCBWVPOOL-UHFFFAOYSA-N

$$$$

  Mrv2220 08292413132D          

 23 24  0  0  0  0            999 V2000
    2.1434    0.4125    0.0000 C   0  0  0  0  0  0  0  0  0  0  0  0
    2.1434   -0.4125    0.0000 S   0  0  0  0  0  0  0  0  0  0  0  0
    1.3184   -0.4125    0.0000 O   0  0  0  0  0  0  0  0  0  0  0  0
    2.9684   -0.4125    0.0000 O   0  0  0  0  0  0  0  0  0  0  0  0
    2.1434   -1.2375    0.0000 C   0  0  0  0  0  0  0  0  0  0  0  0
    1.4289   -1.6500    0.0000 C   0  0  0  0  0  0  0  0  0  0  0  0
    1.4289   -2.4750    0.0000 C   0  0  0  0  0  0  0  0  0  0  0  0
    2.1434   -2.8875    0.0000 C   0  0  0  0  0  0  0  0  0  0  0  0
    2.1434   -3.7125    0.0000 C   0  0  0  0  0  0  0  0  0  0  0  0
    2.8579   -4.1250    0.0000 O   0  0  0  0  0  0  0  0  0  0  0  0
    1.4289   -4.1250    0.0000 C   0  0  0  0  0  0  0  0  0  0  0  0
    1.4289   -4.9500    0.0000 C   0  0  0  0  0  0  0  0  0  0  0  0
    2.1434   -5.3625    0.0000 O   0  0  0  0  0  0  0  0  0  0  0  0
    0.7145   -5.3625    0.0000 C   0  0  0  0  0  0  0  0  0  0  0  0
    0.0000   -4.9500    0.0000 C   0  0  0  0  0  0  0  0  0  0  0  0
    0.0000   -4.1250    0.0000 C   0  0  0  0  0  0  0  0  0  0  0  0
    0.7145   -3.7125    0.0000 C   0  0  0  0  0  0  0  0  0  0  0  0
    0.7145   -2.8875    0.0000 O   0  0  0  0  0  0  0  0  0  0  0  0
    2.8579   -2.4750    0.0000 C   0  0  0  0  0  0  0  0  0  0  0  0
    3.5724   -2.8875    0.0000 N   0  3  0  0  0  0  0  0  0  0  0  0
    3.5724   -3.7125    0.0000 O   0  0  0  0  0  0  0  0  0  0  0  0
    4.2868   -2.4750    0.0000 O   0  5  0  0  0  0  0  0  0  0  0  0
    2.8579   -1.6500    0.0000 C   0  0  0  0  0  0  0  0  0  0  0  0
  1  2  1  0  0  0  0
  2  3  2  0  0  0  0
  2  4  2  0  0  0  0
  2  5  1  0  0  0  0
  5  6  4  0  0  0  0
  6  7  4  0  0  0  0
  7  8  4  0  0  0  0
  8  9  1  0  0  0  0
  9 10  2  0  0  0  0
  9 11  1  0  0  0  0
 11 12  1  0  0  0  0
 12 13  2  0  0  0  0
 12 14  1  0  0  0  0
 14 15  1  0  0  0  0
 15 16  1  0  0  0  0
 16 17  1  0  0  0  0
 11 17  1  0  0  0  0
 17 18  2  0  0  0  0
  8 19  4  0  0  0  0
 19 20  1  0  0  0  0
 20 21  2  0  0  0  0
 20 22  1  0  0  0  0
 19 23  4  0  0  0  0
  5 23  4  0  0  0  0
M  CHG  2  20   1  22  -1
M  END
> <activity>
75.8

> <InChiKey>
KPUREKXXPHOJQT-UHFFFAOYSA-N

$$$$

  Mrv2220 08292413132D          

 20 20  0  0  0  0            999 V2000
   -2.2391   -1.4941    0.0000 C   0  0  0  0  0  0  0  0  0  0  0  0
   -1.4289   -1.6500    0.0000 O   0  0  0  0  0  0  0  0  0  0  0  0
   -0.8889   -1.0264    0.0000 C   0  0  0  0  0  0  0  0  0  0  0  0
   -0.0787   -1.1823    0.0000 C   0  0  0  0  0  0  0  0  0  0  0  0
    0.1913   -1.9618    0.0000 O   0  0  0  0  0  0  0  0  0  0  0  0
    0.4614   -0.5586    0.0000 N   0  0  0  0  0  0  0  0  0  0  0  0
    0.1913    0.2209    0.0000 C   0  0  0  0  0  0  0  0  0  0  0  0
   -0.6188    0.3768    0.0000 C   0  0  0  0  0  0  0  0  0  0  0  0
   -1.1589   -0.2468    0.0000 C   0  0  0  0  0  0  0  0  0  0  0  0
   -0.8889    1.1564    0.0000 C   0  0  0  0  0  0  0  0  0  0  0  0
   -0.3488    1.7800    0.0000 C   0  0  0  0  0  0  0  0  0  0  0  0
    0.4614    1.6241    0.0000 C   0  0  0  0  0  0  0  0  0  0  0  0
    0.7314    0.8446    0.0000 C   0  0  0  0  0  0  0  0  0  0  0  0
    1.5415    0.6887    0.0000 C   0  0  0  0  0  0  0  0  0  0  0  0
    1.2715   -0.7145    0.0000 C   0  0  0  0  0  0  0  0  0  0  0  0
    1.8116   -0.0909    0.0000 C   0  0  0  0  0  0  0  0  0  0  0  0
    1.5415   -1.4941    0.0000 C   0  0  0  0  0  0  0  0  0  0  0  0
    1.0015   -2.1177    0.0000 O   0  0  0  0  0  0  0  0  0  0  0  0
    2.3517   -1.6500    0.0000 O   0  0  0  0  0  0  0  0  0  0  0  0
    2.8918   -1.0264    0.0000 C   0  0  0  0  0  0  0  0  0  0  0  0
  1  2  1  0  0  0  0
  2  3  1  0  0  0  0
  3  4  1  0  0  0  0
  4  5  2  0  0  0  0
  4  6  1  0  0  0  0
  6  7  1  0  0  0  0
  7  8  4  0  0  0  0
  8  9  1  0  0  0  0
  8 10  4  0  0  0  0
 10 11  4  0  0  0  0
 11 12  4  0  0  0  0
 12 13  4  0  0  0  0
  7 13  4  0  0  0  0
 13 14  1  0  0  0  0
  6 15  1  0  0  0  0
 15 16  1  0  0  0  0
 15 17  1  0  0  0  0
 17 18  2  0  0  0  0
 17 19  1  0  0  0  0
 19 20  1  0  0  0  0
M  END
> <activity>
19.9

> <InChiKey>
ZQEIXNIJLIKNTD-UHFFFAOYSA-N

$$$$

  Mrv2220 08292413132D          

 22 24  0  0  0  0            999 V2000
   -0.0557   -0.6860    0.0000 C   0  0  0  0  0  0  0  0  0  0  0  0
   -0.6078   -1.2991    0.0000 C   0  0  0  0  0  0  0  0  0  0  0  0
   -1.1598   -0.6860    0.0000 C   0  0  0  0  0  0  0  0  0  0  0  0
    0.0597   -1.7840    0.0000 C   0  0  0  0  0  0  0  0  0  0  0  0
   -0.1953   -2.5687    0.0000 C   0  0  0  0  0  0  0  0  0  0  0  0
   -1.0203   -2.5687    0.0000 C   0  0  0  0  0  0  0  0  0  0  0  0
   -1.5052   -3.2361    0.0000 C   0  0  0  0  0  0  0  0  0  0  0  0
   -1.1696   -3.9898    0.0000 C   0  0  0  0  0  0  0  0  0  0  0  0
   -0.3491   -4.0760    0.0000 C   0  0  0  0  0  0  0  0  0  0  0  0
   -0.0136   -4.8297    0.0000 C   0  0  0  0  0  0  0  0  0  0  0  0
   -0.4985   -5.4971    0.0000 C   0  0  0  0  0  0  0  0  0  0  0  0
   -0.1630   -6.2508    0.0000 Cl  0  0  0  0  0  0  0  0  0  0  0  0
   -1.3190   -5.4109    0.0000 C   0  0  0  0  0  0  0  0  0  0  0  0
   -1.6546   -4.6572    0.0000 C   0  0  0  0  0  0  0  0  0  0  0  0
   -1.2752   -1.7840    0.0000 C   0  0  0  0  0  0  0  0  0  0  0  0
   -2.0839   -1.9471    0.0000 O   0  0  0  0  0  0  0  0  0  0  0  0
   -1.8336   -1.1767    0.0000 C   0  0  0  0  0  0  0  0  0  0  0  0
   -1.5869   -0.3895    0.0000 N   0  0  0  0  0  0  0  0  0  0  0  0
   -2.0788    0.2728    0.0000 C   0  0  0  0  0  0  0  0  0  0  0  0
   -1.6009    0.9453    0.0000 N   0  0  0  0  0  0  0  0  0  0  0  0
   -0.8136    0.6986    0.0000 C   0  0  0  0  0  0  0  0  0  0  0  0
   -0.8050   -0.1264    0.0000 N   0  0  0  0  0  0  0  0  0  0  0  0
  1  2  1  0  0  0  0
  2  3  1  0  0  0  0
  2  4  1  0  0  0  0
  4  5  1  0  0  0  0
  5  6  1  0  0  0  0
  6  7  1  0  0  0  0
  7  8  1  0  0  0  0
  8  9  4  0  0  0  0
  9 10  4  0  0  0  0
 10 11  4  0  0  0  0
 11 12  1  0  0  0  0
 11 13  4  0  0  0  0
 13 14  4  0  0  0  0
  8 14  4  0  0  0  0
  6 15  1  0  0  0  0
  2 15  1  0  0  0  0
 15 16  1  0  0  0  0
 15 17  1  0  0  0  0
 17 18  1  0  0  0  0
 18 19  4  0  0  0  0
 19 20  4  0  0  0  0
 20 21  4  0  0  0  0
 21 22  4  0  0  0  0
 18 22  4  0  0  0  0
M  END
> <activity>
31.7

> <InChiKey>
XWPZUHJBOLQNMN-UHFFFAOYSA-N

$$$$

  Mrv2220 08292413132D          

  6  5  0  0  0  0            999 V2000
    0.8250    1.4289    0.0000 C   0  0  0  0  0  0  0  0  0  0  0  0
    1.2375    0.7145    0.0000 C   0  0  0  0  0  0  0  0  0  0  0  0
    2.0625    0.7145    0.0000 C   0  0  0  0  0  0  0  0  0  0  0  0
    0.8250    0.0000    0.0000 C   0  0  0  0  0  0  0  0  0  0  0  0
    1.2375   -0.7145    0.0000 N   0  0  0  0  0  0  0  0  0  0  0  0
    0.0000    0.0000    0.0000 O   0  0  0  0  0  0  0  0  0  0  0  0
  1  2  2  0  0  0  0
  2  3  1  0  0  0  0
  2  4  1  0  0  0  0
  4  5  1  0  0  0  0
  4  6  2  0  0  0  0
M  END
> <activity>
9.2

> <InChiKey>
FQPSGWSUVKBHSU-UHFFFAOYSA-N

$$$$

  Mrv2220 08292413132D          

  5  4  0  0  0  0            999 V2000
    2.0625   -0.7145    0.0000 C   0  0  0  0  0  0  0  0  0  0  0  0
    1.6500   -0.0000    0.0000 C   0  0  0  0  0  0  0  0  0  0  0  0
    2.0625    0.7145    0.0000 C   0  0  0  0  0  0  0  0  0  0  0  0
    0.8250    0.0000    0.0000 C   0  0  0  0  0  0  0  0  0  0  0  0
    0.0000    0.0000    0.0000 N   0  0  0  0  0  0  0  0  0  0  0  0
  1  2  2  0  0  0  0
  2  3  1  0  0  0  0
  2  4  1  0  0  0  0
  4  5  3  0  0  0  0
M  END
> <activity>
3.5

> <InChiKey>
GYCMBHHDWRMZGG-UHFFFAOYSA-N

$$$$

  Mrv2220 08292413132D          

 23 24  0  0  0  0            999 V2000
   -1.3480   -1.9520    0.0000 C   0  0  0  0  0  0  0  0  0  0  0  0
   -0.5230   -1.9520    0.0000 C   0  0  0  0  0  0  0  0  0  0  0  0
   -0.1105   -1.2375    0.0000 C   0  0  0  0  0  0  0  0  0  0  0  0
   -0.5230   -0.5230    0.0000 O   0  0  0  0  0  0  0  0  0  0  0  0
    0.7145   -1.2375    0.0000 C   0  0  0  0  0  0  0  0  0  0  0  0
    1.5395   -1.2375    0.0000 C   0  0  0  0  0  0  0  0  0  0  0  0
    1.9520   -0.5230    0.0000 C   0  0  0  0  0  0  0  0  0  0  0  0
    1.7804    0.2839    0.0000 C   0  0  0  0  0  0  0  0  0  0  0  0
    2.7770   -0.5230    0.0000 N   0  0  0  0  0  0  0  0  0  0  0  0
    3.1895    0.1914    0.0000 C   0  0  0  0  0  0  0  0  0  0  0  0
    3.1895   -1.2375    0.0000 C   0  0  0  0  0  0  0  0  0  0  0  0
    0.7145   -2.0625    0.0000 C   0  0  0  0  0  0  0  0  0  0  0  0
    1.4289   -2.4750    0.0000 C   0  0  0  0  0  0  0  0  0  0  0  0
    1.4289   -3.3000    0.0000 C   0  0  0  0  0  0  0  0  0  0  0  0
    0.7145   -3.7125    0.0000 C   0  0  0  0  0  0  0  0  0  0  0  0
    0.0000   -3.3000    0.0000 C   0  0  0  0  0  0  0  0  0  0  0  0
    0.0000   -2.4750    0.0000 C   0  0  0  0  0  0  0  0  0  0  0  0
    0.7145   -0.4125    0.0000 C   0  0  0  0  0  0  0  0  0  0  0  0
    0.0000    0.0000    0.0000 C   0  0  0  0  0  0  0  0  0  0  0  0
    0.0000    0.8250    0.0000 C   0  0  0  0  0  0  0  0  0  0  0  0
    0.7145    1.2375    0.0000 C   0  0  0  0  0  0  0  0  0  0  0  0
    1.4289    0.8250    0.0000 C   0  0  0  0  0  0  0  0  0  0  0  0
    1.4289   -0.0000    0.0000 C   0  0  0  0  0  0  0  0  0  0  0  0
  1  2  1  0  0  0  0
  2  3  1  0  0  0  0
  3  4  2  0  0  0  0
  3  5  1  0  0  0  0
  5  6  1  0  0  0  0
  6  7  1  0  0  0  0
  7  8  1  0  0  0  0
  7  9  1  0  0  0  0
  9 10  1  0  0  0  0
  9 11  1  0  0  0  0
  5 12  1  0  0  0  0
 12 13  4  0  0  0  0
 13 14  4  0  0  0  0
 14 15  4  0  0  0  0
 15 16  4  0  0  0  0
 16 17  4  0  0  0  0
 12 17  4  0  0  0  0
  5 18  1  0  0  0  0
 18 19  4  0  0  0  0
 19 20  4  0  0  0  0
 20 21  4  0  0  0  0
 21 22  4  0  0  0  0
 22 23  4  0  0  0  0
 18 23  4  0  0  0  0
M  END
> <activity>
-4.6

> <InChiKey>
USSIQXCVUWKGNF-UHFFFAOYSA-N

$$$$

  Mrv2220 08292413132D          

  7  6  0  0  0  0            999 V2000
    2.4750   -1.4289    0.0000 C   0  0  0  0  0  0  0  0  0  0  0  0
    1.6500   -1.4289    0.0000 O   0  0  0  0  0  0  0  0  0  0  0  0
    1.2375   -0.7145    0.0000 P   0  0  0  0  0  0  0  0  0  0  0  0
    1.9520   -0.3020    0.0000 N   0  0  0  0  0  0  0  0  0  0  0  0
    0.5230   -1.1270    0.0000 O   0  0  0  0  0  0  0  0  0  0  0  0
    0.8250    0.0000    0.0000 S   0  0  0  0  0  0  0  0  0  0  0  0
    0.0000    0.0000    0.0000 C   0  0  0  0  0  0  0  0  0  0  0  0
  1  2  1  0  0  0  0
  2  3  1  0  0  0  0
  3  4  1  0  0  0  0
  3  5  2  0  0  0  0
  3  6  1  0  0  0  0
  6  7  1  0  0  0  0
M  END
> <activity>
17.4

> <InChiKey>
NNKVPIKMPCQWCG-UHFFFAOYSA-N

$$$$

  Mrv2220 08292413132D          

 10 12  0  0  0  0            999 V2000
    0.1163   -2.0322    0.0000 C   0  0  0  0  0  0  0  0  0  0  0  0
    0.8517   -1.6585    0.0000 N   0  0  0  0  0  0  0  0  0  0  0  0
    1.5873   -2.0322    0.0000 C   0  0  0  0  0  0  0  0  0  0  0  0
    2.0368   -1.2419    0.0000 N   0  0  0  0  0  0  0  0  0  0  0  0
    1.3012   -1.6156    0.0000 C   0  0  0  0  0  0  0  0  0  0  0  0
    0.5657   -1.2419    0.0000 N   0  0  0  0  0  0  0  0  0  0  0  0
    0.5657   -0.4945    0.0000 C   0  0  0  0  0  0  0  0  0  0  0  0
    1.3012   -0.1208    0.0000 N   0  0  0  0  0  0  0  0  0  0  0  0
    0.8517   -0.9111    0.0000 C   0  0  0  0  0  0  0  0  0  0  0  0
    2.0368   -0.4945    0.0000 C   0  0  0  0  0  0  0  0  0  0  0  0
  1  2  1  0  0  0  0
  2  3  1  0  0  0  0
  3  4  1  0  0  0  0
  4  5  1  0  0  0  0
  5  6  1  0  0  0  0
  1  6  1  0  0  0  0
  8 10  1  0  0  0  0
  7  8  1  0  0  0  0
  8  9  1  0  0  0  0
  2  9  1  0  0  0  0
  6  7  1  0  0  0  0
  4 10  1  0  0  0  0
M  END
> <activity>
21.7

> <InChiKey>
VKYKSIONXSXAKP-UHFFFAOYSA-N

$$$$

  Mrv2220 08292413132D          

 16 16  0  0  0  0            999 V2000
   -0.1467    2.3518    0.0000 C   0  0  0  0  0  0  0  0  0  0  0  0
    0.5678    1.9393    0.0000 O   0  0  0  0  0  0  0  0  0  0  0  0
    0.5678    1.1143    0.0000 C   0  0  0  0  0  0  0  0  0  0  0  0
    1.2352    0.6294    0.0000 N   0  0  0  0  0  0  0  0  0  0  0  0
    0.9803   -0.1553    0.0000 N   0  0  0  0  0  0  0  0  0  0  0  0
    1.4652   -0.8227    0.0000 C   0  0  0  0  0  0  0  0  0  0  0  0
    2.2857   -0.7365    0.0000 S   0  0  0  0  0  0  0  0  0  0  0  0
    2.7706   -1.4039    0.0000 P   0  0  0  0  0  0  0  0  0  0  0  0
    2.1031   -1.8888    0.0000 S   0  0  0  0  0  0  0  0  0  0  0  0
    3.2555   -2.0713    0.0000 O   0  0  0  0  0  0  0  0  0  0  0  0
    4.0760   -1.9851    0.0000 C   0  0  0  0  0  0  0  0  0  0  0  0
    3.4380   -0.9190    0.0000 O   0  0  0  0  0  0  0  0  0  0  0  0
    4.1917   -1.2545    0.0000 C   0  0  0  0  0  0  0  0  0  0  0  0
    0.1553   -0.1553    0.0000 C   0  0  0  0  0  0  0  0  0  0  0  0
   -0.3297   -0.8227    0.0000 O   0  0  0  0  0  0  0  0  0  0  0  0
   -0.0997    0.6294    0.0000 S   0  0  0  0  0  0  0  0  0  0  0  0
  1  2  1  0  0  0  0
  2  3  1  0  0  0  0
  3  4  4  0  0  0  0
  4  5  4  0  0  0  0
  5  6  1  0  0  0  0
  6  7  1  0  0  0  0
  7  8  1  0  0  0  0
  8  9  2  0  0  0  0
  8 10  1  0  0  0  0
 10 11  1  0  0  0  0
  8 12  1  0  0  0  0
 12 13  1  0  0  0  0
  5 14  4  0  0  0  0
 14 15  2  0  0  0  0
 14 16  4  0  0  0  0
  3 16  4  0  0  0  0
M  END
> <activity>
73.9

> <InChiKey>
MEBQXILRKZHVCX-UHFFFAOYSA-N

$$$$

  Mrv2220 08292413132D          

  7  7  0  0  0  0            999 V2000
    0.5678    1.9393    0.0000 C   0  0  0  0  0  0  0  0  0  0  0  0
    0.5678    1.1143    0.0000 N   0  0  0  0  0  0  0  0  0  0  0  0
    1.2352    0.6294    0.0000 C   0  0  0  0  0  0  0  0  0  0  0  0
    0.9803   -0.1553    0.0000 C   0  0  0  0  0  0  0  0  0  0  0  0
    0.1553   -0.1553    0.0000 N   0  0  0  0  0  0  0  0  0  0  0  0
   -0.0997    0.6294    0.0000 C   0  0  0  0  0  0  0  0  0  0  0  0
   -0.8843    0.8843    0.0000 S   0  0  0  0  0  0  0  0  0  0  0  0
  1  2  1  0  0  0  0
  2  3  4  0  0  0  0
  3  4  4  0  0  0  0
  4  5  4  0  0  0  0
  5  6  4  0  0  0  0
  2  6  4  0  0  0  0
  6  7  2  0  0  0  0
M  STY  1   1 DAT
M  SAL   1  1   5
M  SDT   1 MRV_IMPLICIT_H                                        
M  SDD   1     0.5304   -0.4125    DR    ALL  0       0  
M  SED   1 IMPL_H1
M  END
> <activity>
60.3

> <InChiKey>
PMRYVIKBURPHAH-UHFFFAOYSA-N

$$$$

  Mrv2220 08292413132D          

 10  9  0  0  0  0            999 V2000
    3.3000    1.4289    0.0000 C   0  0  0  0  0  0  0  0  0  0  0  0
    2.4750    1.4289    0.0000 N   0  0  0  0  0  0  0  0  0  0  0  0
    2.0625    0.7145    0.0000 C   0  0  0  0  0  0  0  0  0  0  0  0
    2.4750    0.0000    0.0000 O   0  0  0  0  0  0  0  0  0  0  0  0
    1.2375    0.7145    0.0000 O   0  0  0  0  0  0  0  0  0  0  0  0
    0.8250    0.0000    0.0000 N   0  0  0  0  0  0  0  0  0  0  0  0
    0.0000    0.0000    0.0000 C   0  0  0  0  0  0  0  0  0  0  0  0
   -0.4125    0.7145    0.0000 C   0  0  0  0  0  0  0  0  0  0  0  0
   -0.4125   -0.7145    0.0000 S   0  0  0  0  0  0  0  0  0  0  0  0
    0.0000   -1.4289    0.0000 C   0  0  0  0  0  0  0  0  0  0  0  0
  1  2  1  0  0  0  0
  2  3  1  0  0  0  0
  3  4  2  0  0  0  0
  3  5  1  0  0  0  0
  6  5  1  4  0  0  0
  6  7  2  0  0  0  0
  7  8  1  0  0  0  0
  7  9  1  0  0  0  0
  9 10  1  0  0  0  0
M  END
> <activity>
19.4

> <InChiKey>
UHXUZOCRWCRNSJ-UHFFFAOYSA-N

$$$$

  Mrv2220 08292413132D          

 21 22  0  0  0  0            999 V2000
    1.4289    0.0000    0.0000 C   0  0  0  0  0  0  0  0  0  0  0  0
    2.1434   -0.4125    0.0000 O   0  0  0  0  0  0  0  0  0  0  0  0
    2.1434   -1.2375    0.0000 C   0  0  0  0  0  0  0  0  0  0  0  0
    2.8579   -1.6500    0.0000 C   0  0  0  0  0  0  0  0  0  0  0  0
    2.8579   -2.4750    0.0000 C   0  0  0  0  0  0  0  0  0  0  0  0
    2.1434   -2.8875    0.0000 C   0  0  0  0  0  0  0  0  0  0  0  0
    2.1434   -3.7125    0.0000 C   0  0  0  0  0  0  0  0  0  0  0  0
    1.4289   -4.1250    0.0000 C   0  0  0  0  0  0  0  0  0  0  0  0
    1.4289   -4.9500    0.0000 C   0  0  0  0  0  0  0  0  0  0  0  0
    0.7145   -5.3625    0.0000 C   0  0  0  0  0  0  0  0  0  0  0  0
   -0.0000   -4.9500    0.0000 C   0  0  0  0  0  0  0  0  0  0  0  0
   -0.7145   -5.3625    0.0000 O   0  0  0  0  0  0  0  0  0  0  0  0
   -0.7145   -6.1875    0.0000 C   0  0  0  0  0  0  0  0  0  0  0  0
    0.0000   -4.1250    0.0000 C   0  0  0  0  0  0  0  0  0  0  0  0
    0.7145   -3.7125    0.0000 C   0  0  0  0  0  0  0  0  0  0  0  0
    2.8579   -4.1250    0.0000 C   0  0  0  0  0  0  0  0  0  0  0  0
    3.5724   -4.5375    0.0000 Cl  0  0  0  0  0  0  0  0  0  0  0  0
    2.4454   -4.8395    0.0000 Cl  0  0  0  0  0  0  0  0  0  0  0  0
    3.2704   -3.4105    0.0000 Cl  0  0  0  0  0  0  0  0  0  0  0  0
    1.4289   -2.4750    0.0000 C   0  0  0  0  0  0  0  0  0  0  0  0
    1.4289   -1.6500    0.0000 C   0  0  0  0  0  0  0  0  0  0  0  0
  1  2  1  0  0  0  0
  2  3  1  0  0  0  0
  3  4  4  0  0  0  0
  4  5  4  0  0  0  0
  5  6  4  0  0  0  0
  6  7  1  0  0  0  0
  7  8  1  0  0  0  0
  8  9  4  0  0  0  0
  9 10  4  0  0  0  0
 10 11  4  0  0  0  0
 11 12  1  0  0  0  0
 12 13  1  0  0  0  0
 11 14  4  0  0  0  0
 14 15  4  0  0  0  0
  8 15  4  0  0  0  0
  7 16  1  0  0  0  0
 16 17  1  0  0  0  0
 16 18  1  0  0  0  0
 16 19  1  0  0  0  0
  6 20  4  0  0  0  0
 20 21  4  0  0  0  0
  3 21  4  0  0  0  0
M  END
> <activity>
23.8

> <InChiKey>
IAKOZHOLGAGEJT-UHFFFAOYSA-N

$$$$

  Mrv2220 08292413132D          

 27 28  0  0  0  0            999 V2000
   -0.7145   -6.1875    0.0000 C   0  0  0  0  0  0  0  0  0  0  0  0
    0.0000   -5.7750    0.0000 O   0  0  0  0  0  0  0  0  0  0  0  0
    0.0000   -4.9500    0.0000 C   0  0  0  0  0  0  0  0  0  0  0  0
   -0.7145   -4.5375    0.0000 C   0  0  0  0  0  0  0  0  0  0  0  0
   -0.7145   -3.7125    0.0000 C   0  0  0  0  0  0  0  0  0  0  0  0
    0.0000   -3.3000    0.0000 C   0  0  0  0  0  0  0  0  0  0  0  0
    0.7145   -3.7125    0.0000 C   0  0  0  0  0  0  0  0  0  0  0  0
    1.4289   -3.3000    0.0000 C   0  0  0  0  0  0  0  0  0  0  0  0
    2.1434   -3.7125    0.0000 O   0  0  0  0  0  0  0  0  0  0  0  0
    1.4289   -2.4750    0.0000 N   0  0  0  0  0  0  0  0  0  0  0  0
    2.1434   -2.0625    0.0000 N   0  0  0  0  0  0  0  0  0  0  0  0
    2.1434   -1.2375    0.0000 C   0  0  0  0  0  0  0  0  0  0  0  0
    1.4289   -0.8250    0.0000 O   0  0  0  0  0  0  0  0  0  0  0  0
    2.8579   -0.8250    0.0000 C   0  0  0  0  0  0  0  0  0  0  0  0
    2.8579    0.0000    0.0000 C   0  0  0  0  0  0  0  0  0  0  0  0
    3.5724    0.4125    0.0000 C   0  0  0  0  0  0  0  0  0  0  0  0
    3.5724    1.2375    0.0000 C   0  0  0  0  0  0  0  0  0  0  0  0
    4.2868    0.0000    0.0000 C   0  0  0  0  0  0  0  0  0  0  0  0
    4.2868   -0.8250    0.0000 C   0  0  0  0  0  0  0  0  0  0  0  0
    5.0013   -1.2375    0.0000 C   0  0  0  0  0  0  0  0  0  0  0  0
    3.5724   -1.2375    0.0000 C   0  0  0  0  0  0  0  0  0  0  0  0
    2.8579   -2.4750    0.0000 C   0  0  0  0  0  0  0  0  0  0  0  0
    2.4454   -3.1895    0.0000 C   0  0  0  0  0  0  0  0  0  0  0  0
    3.2704   -1.7605    0.0000 C   0  0  0  0  0  0  0  0  0  0  0  0
    3.5724   -2.8875    0.0000 C   0  0  0  0  0  0  0  0  0  0  0  0
    0.7145   -4.5375    0.0000 C   0  0  0  0  0  0  0  0  0  0  0  0
    1.4289   -4.9500    0.0000 C   0  0  0  0  0  0  0  0  0  0  0  0
  1  2  1  0  0  0  0
  2  3  1  0  0  0  0
  3  4  4  0  0  0  0
  4  5  4  0  0  0  0
  5  6  4  0  0  0  0
  6  7  4  0  0  0  0
  7  8  1  0  0  0  0
  8  9  2  0  0  0  0
  8 10  1  0  0  0  0
 10 11  1  0  0  0  0
 11 12  1  0  0  0  0
 12 13  2  0  0  0  0
 12 14  1  0  0  0  0
 14 15  4  0  0  0  0
 15 16  4  0  0  0  0
 16 17  1  0  0  0  0
 16 18  4  0  0  0  0
 18 19  4  0  0  0  0
 19 20  1  0  0  0  0
 19 21  4  0  0  0  0
 14 21  4  0  0  0  0
 11 22  1  0  0  0  0
 22 23  1  0  0  0  0
 22 24  1  0  0  0  0
 22 25  1  0  0  0  0
  7 26  4  0  0  0  0
  3 26  4  0  0  0  0
 26 27  1  0  0  0  0
M  END
> <activity>
86.0

> <InChiKey>
QCAWEPFNJXQPAN-UHFFFAOYSA-N

$$$$

  Mrv2220 08292413132D          

 14 14  0  0  0  0            999 V2000
    0.0000    3.3000    0.0000 C   0  0  0  0  0  0  0  0  0  0  0  0
    0.0000    2.4750    0.0000 O   0  0  0  0  0  0  0  0  0  0  0  0
    0.7145    2.0625    0.0000 C   0  0  0  0  0  0  0  0  0  0  0  0
    1.4289    2.4750    0.0000 O   0  0  0  0  0  0  0  0  0  0  0  0
    0.7145    1.2375    0.0000 C   0  0  0  0  0  0  0  0  0  0  0  0
    1.4289    0.8250    0.0000 C   0  0  0  0  0  0  0  0  0  0  0  0
    2.1434    1.2375    0.0000 C   0  0  0  0  0  0  0  0  0  0  0  0
    1.4289   -0.0000    0.0000 C   0  0  0  0  0  0  0  0  0  0  0  0
    0.7145   -0.4125    0.0000 C   0  0  0  0  0  0  0  0  0  0  0  0
    0.7145   -1.2375    0.0000 O   0  0  0  0  0  0  0  0  0  0  0  0
    0.0000    0.0000    0.0000 C   0  0  0  0  0  0  0  0  0  0  0  0
   -0.7145   -0.4125    0.0000 C   0  0  0  0  0  0  0  0  0  0  0  0
    0.0000    0.8250    0.0000 C   0  0  0  0  0  0  0  0  0  0  0  0
   -0.7145    1.2375    0.0000 O   0  0  0  0  0  0  0  0  0  0  0  0
  1  2  1  0  0  0  0
  2  3  1  0  0  0  0
  3  4  2  0  0  0  0
  3  5  1  0  0  0  0
  5  6  4  0  0  0  0
  6  7  1  0  0  0  0
  6  8  4  0  0  0  0
  8  9  4  0  0  0  0
  9 10  1  0  0  0  0
  9 11  4  0  0  0  0
 11 12  1  0  0  0  0
 11 13  4  0  0  0  0
  5 13  4  0  0  0  0
 13 14  1  0  0  0  0
M  END
> <activity>
96.9

> <InChiKey>
UUQHKWMIDYRWHH-UHFFFAOYSA-N

$$$$

  Mrv2220 08292413132D          

 13 12  0  0  0  0            999 V2000
    3.5211    2.8579    0.0000 C   0  0  0  0  0  0  0  0  0  0  0  0
    4.2355    3.2704    0.0000 C   0  0  0  0  0  0  0  0  0  0  0  0
    4.9500    2.8579    0.0000 C   0  0  0  0  0  0  0  0  0  0  0  0
    5.6645    3.2704    0.0000 C   0  0  0  0  0  0  0  0  0  0  0  0
    6.3789    2.8579    0.0000 C   0  0  0  0  0  0  0  0  0  0  0  0
    7.0934    3.2704    0.0000 C   0  0  0  0  0  0  0  0  0  0  0  0
    7.8079    2.8579    0.0000 C   0  0  0  0  0  0  0  0  0  0  0  0
    8.5224    3.2704    0.0000 C   0  0  0  0  0  0  0  0  0  0  0  0
    9.2368    2.8579    0.0000 C   0  0  0  0  0  0  0  0  0  0  0  0
    9.9513    3.2704    0.0000 C   0  0  0  0  0  0  0  0  0  0  0  0
    9.9513    4.0954    0.0000 O   0  0  0  0  0  0  0  0  0  0  0  0
   10.6658    2.8579    0.0000 O   0  0  0  0  0  0  0  0  0  0  0  0
   11.3802    3.2704    0.0000 C   0  0  0  0  0  0  0  0  0  0  0  0
  1  2  1  0  0  0  0
  2  3  1  0  0  0  0
  3  4  1  0  0  0  0
  4  5  1  0  0  0  0
  5  6  1  0  0  0  0
  6  7  1  0  0  0  0
  7  8  1  0  0  0  0
  8  9  1  0  0  0  0
  9 10  1  0  0  0  0
 10 11  2  0  0  0  0
 10 12  1  0  0  0  0
 12 13  1  0  0  0  0
M  END
> <activity>
20.2

> <InChiKey>
YRHYCMZPEVDGFQ-UHFFFAOYSA-N

$$$$

  Mrv2220 08292413132D          

 16 16  0  0  0  0            999 V2000
   -0.6865   -2.4373    0.0000 C   0  0  0  0  0  0  0  0  0  0  0  0
    0.0280   -2.0248    0.0000 C   0  0  0  0  0  0  0  0  0  0  0  0
    0.7425   -2.4373    0.0000 C   0  0  0  0  0  0  0  0  0  0  0  0
    1.4569   -2.0248    0.0000 C   0  0  0  0  0  0  0  0  0  0  0  0
    2.1714   -2.4373    0.0000 C   0  0  0  0  0  0  0  0  0  0  0  0
    2.8859   -2.0248    0.0000 C   0  0  0  0  0  0  0  0  0  0  0  0
    2.9721   -1.2043    0.0000 C   0  0  0  0  0  0  0  0  0  0  0  0
    2.3590   -0.6523    0.0000 O   0  0  0  0  0  0  0  0  0  0  0  0
    3.7791   -1.0328    0.0000 C   0  0  0  0  0  0  0  0  0  0  0  0
    4.1916   -1.7472    0.0000 C   0  0  0  0  0  0  0  0  0  0  0  0
    3.6396   -2.3603    0.0000 C   0  0  0  0  0  0  0  0  0  0  0  0
    3.8111   -3.1673    0.0000 C   0  0  0  0  0  0  0  0  0  0  0  0
    4.5957   -3.4222    0.0000 C   0  0  0  0  0  0  0  0  0  0  0  0
    5.2088   -2.8702    0.0000 O   0  0  0  0  0  0  0  0  0  0  0  0
    4.7672   -4.2292    0.0000 O   0  0  0  0  0  0  0  0  0  0  0  0
    5.5519   -4.4842    0.0000 C   0  0  0  0  0  0  0  0  0  0  0  0
  1  2  1  0  0  0  0
  2  3  1  0  0  0  0
  3  4  1  0  0  0  0
  4  5  1  0  0  0  0
  5  6  1  0  0  0  0
  6  7  1  0  0  0  0
  7  8  2  0  0  0  0
  7  9  1  0  0  0  0
  9 10  1  0  0  0  0
 10 11  1  0  0  0  0
  6 11  1  0  0  0  0
 11 12  1  0  0  0  0
 12 13  1  0  0  0  0
 13 14  2  0  0  0  0
 13 15  1  0  0  0  0
 15 16  1  0  0  0  0
M  END
> <activity>
20.9

> <InChiKey>
KVWWIYGFBYDJQC-UHFFFAOYSA-N

$$$$

  Mrv2220 08292413132D          

 15 14  0  0  0  0            999 V2000
    4.7586    3.5724    0.0000 C   0  0  0  0  0  0  0  0  0  0  0  0
    5.4730    3.9849    0.0000 C   0  0  0  0  0  0  0  0  0  0  0  0
    6.1875    3.5724    0.0000 C   0  0  0  0  0  0  0  0  0  0  0  0
    6.9020    3.9849    0.0000 C   0  0  0  0  0  0  0  0  0  0  0  0
    7.6164    3.5724    0.0000 C   0  0  0  0  0  0  0  0  0  0  0  0
    8.3309    3.9849    0.0000 C   0  0  0  0  0  0  0  0  0  0  0  0
    9.0454    3.5724    0.0000 C   0  0  0  0  0  0  0  0  0  0  0  0
    9.7599    3.9849    0.0000 C   0  0  0  0  0  0  0  0  0  0  0  0
   10.4743    3.5724    0.0000 C   0  0  0  0  0  0  0  0  0  0  0  0
   11.1888    3.9849    0.0000 C   0  0  0  0  0  0  0  0  0  0  0  0
   11.9033    3.5724    0.0000 C   0  0  0  0  0  0  0  0  0  0  0  0
   12.6177    3.9849    0.0000 C   0  0  0  0  0  0  0  0  0  0  0  0
   12.6177    4.8099    0.0000 O   0  0  0  0  0  0  0  0  0  0  0  0
   13.3322    3.5724    0.0000 O   0  0  0  0  0  0  0  0  0  0  0  0
   14.0467    3.9849    0.0000 C   0  0  0  0  0  0  0  0  0  0  0  0
  1  2  1  0  0  0  0
  2  3  1  0  0  0  0
  3  4  1  0  0  0  0
  4  5  1  0  0  0  0
  5  6  1  0  0  0  0
  6  7  1  0  0  0  0
  7  8  1  0  0  0  0
  8  9  1  0  0  0  0
  9 10  1  0  0  0  0
 10 11  1  0  0  0  0
 11 12  1  0  0  0  0
 12 13  2  0  0  0  0
 12 14  1  0  0  0  0
 14 15  1  0  0  0  0
M  END
> <activity>
32.1

> <InChiKey>
UQDUPQYQJKYHQI-UHFFFAOYSA-N

$$$$

  Mrv2220 08292413132D          

 11 10  0  0  0  0            999 V2000
    2.2836    2.1434    0.0000 C   0  0  0  0  0  0  0  0  0  0  0  0
    2.9980    2.5559    0.0000 C   0  0  0  0  0  0  0  0  0  0  0  0
    3.7125    2.1434    0.0000 C   0  0  0  0  0  0  0  0  0  0  0  0
    4.4270    2.5559    0.0000 C   0  0  0  0  0  0  0  0  0  0  0  0
    5.1414    2.1434    0.0000 C   0  0  0  0  0  0  0  0  0  0  0  0
    5.8559    2.5559    0.0000 C   0  0  0  0  0  0  0  0  0  0  0  0
    6.5704    2.1434    0.0000 C   0  0  0  0  0  0  0  0  0  0  0  0
    7.2849    2.5559    0.0000 C   0  0  0  0  0  0  0  0  0  0  0  0
    7.2849    3.3809    0.0000 O   0  0  0  0  0  0  0  0  0  0  0  0
    7.9993    2.1434    0.0000 O   0  0  0  0  0  0  0  0  0  0  0  0
    8.7138    2.5559    0.0000 C   0  0  0  0  0  0  0  0  0  0  0  0
  1  2  1  0  0  0  0
  2  3  1  0  0  0  0
  3  4  1  0  0  0  0
  4  5  1  0  0  0  0
  5  6  1  0  0  0  0
  6  7  1  0  0  0  0
  7  8  1  0  0  0  0
  8  9  2  0  0  0  0
  8 10  1  0  0  0  0
 10 11  1  0  0  0  0
M  END
> <activity>
15.7

> <InChiKey>
JGHZJRVDZXSNKQ-UHFFFAOYSA-N

$$$$

  Mrv2220 08292413132D          

 16 16  0  0  0  0            999 V2000
   -0.7145    3.7125    0.0000 C   0  0  0  0  0  0  0  0  0  0  0  0
   -0.7145    2.8875    0.0000 O   0  0  0  0  0  0  0  0  0  0  0  0
    0.0000    2.4750    0.0000 P   0  0  0  0  0  0  0  0  0  0  0  0
   -0.4125    1.7605    0.0000 S   0  0  0  0  0  0  0  0  0  0  0  0
    0.4125    3.1895    0.0000 O   0  0  0  0  0  0  0  0  0  0  0  0
    1.2375    3.1895    0.0000 C   0  0  0  0  0  0  0  0  0  0  0  0
    0.7145    2.0625    0.0000 O   0  0  0  0  0  0  0  0  0  0  0  0
    0.7145    1.2375    0.0000 C   0  0  0  0  0  0  0  0  0  0  0  0
    1.4289    0.8250    0.0000 C   0  0  0  0  0  0  0  0  0  0  0  0
    1.4289   -0.0000    0.0000 C   0  0  0  0  0  0  0  0  0  0  0  0
    0.7145   -0.4125    0.0000 C   0  0  0  0  0  0  0  0  0  0  0  0
    0.7145   -1.2375    0.0000 N   0  3  0  0  0  0  0  0  0  0  0  0
    1.4289   -1.6500    0.0000 O   0  0  0  0  0  0  0  0  0  0  0  0
   -0.0000   -1.6500    0.0000 O   0  5  0  0  0  0  0  0  0  0  0  0
    0.0000    0.0000    0.0000 C   0  0  0  0  0  0  0  0  0  0  0  0
    0.0000    0.8250    0.0000 C   0  0  0  0  0  0  0  0  0  0  0  0
  1  2  1  0  0  0  0
  2  3  1  0  0  0  0
  3  4  2  0  0  0  0
  3  5  1  0  0  0  0
  5  6  1  0  0  0  0
  3  7  1  0  0  0  0
  7  8  1  0  0  0  0
  8  9  4  0  0  0  0
  9 10  4  0  0  0  0
 10 11  4  0  0  0  0
 11 12  1  0  0  0  0
 12 13  2  0  0  0  0
 12 14  1  0  0  0  0
 11 15  4  0  0  0  0
 15 16  4  0  0  0  0
  8 16  4  0  0  0  0
M  CHG  2  12   1  14  -1
M  END
> <activity>
92.6

> <InChiKey>
RLBIQVVOMOPOHC-UHFFFAOYSA-N

$$$$

  Mrv2220 08292413132D          

 20 21  0  0  0  0            999 V2000
    0.7145   -1.2375    0.0000 C   0  0  0  0  0  0  0  0  0  0  0  0
    1.4289   -1.6500    0.0000 N   0  0  0  0  0  0  0  0  0  0  0  0
    2.1434   -1.2375    0.0000 C   0  0  0  0  0  0  0  0  0  0  0  0
    1.4289   -2.4750    0.0000 C   0  0  0  0  0  0  0  0  0  0  0  0
    2.1434   -2.8875    0.0000 C   0  0  0  0  0  0  0  0  0  0  0  0
    2.1434   -3.7125    0.0000 C   0  0  0  0  0  0  0  0  0  0  0  0
    1.4289   -4.1250    0.0000 C   0  0  0  0  0  0  0  0  0  0  0  0
    1.4289   -4.9500    0.0000 N   0  0  0  0  0  0  0  0  0  0  0  0
    2.1434   -5.3625    0.0000 N   0  0  0  0  0  0  0  0  0  0  0  0
    2.1434   -6.1875    0.0000 C   0  0  0  0  0  0  0  0  0  0  0  0
    2.8579   -6.6000    0.0000 C   0  0  0  0  0  0  0  0  0  0  0  0
    2.8579   -7.4250    0.0000 C   0  0  0  0  0  0  0  0  0  0  0  0
    2.1434   -7.8375    0.0000 C   0  0  0  0  0  0  0  0  0  0  0  0
    1.4289   -7.4250    0.0000 C   0  0  0  0  0  0  0  0  0  0  0  0
    1.4289   -6.6000    0.0000 C   0  0  0  0  0  0  0  0  0  0  0  0
    0.7145   -6.1875    0.0000 C   0  0  0  0  0  0  0  0  0  0  0  0
    0.7145   -5.3625    0.0000 O   0  0  0  0  0  0  0  0  0  0  0  0
    0.0000   -6.6000    0.0000 O   0  0  0  0  0  0  0  0  0  0  0  0
    0.7145   -3.7125    0.0000 C   0  0  0  0  0  0  0  0  0  0  0  0
    0.7145   -2.8875    0.0000 C   0  0  0  0  0  0  0  0  0  0  0  0
  1  2  1  0  0  0  0
  2  3  1  0  0  0  0
  2  4  1  0  0  0  0
  4  5  4  0  0  0  0
  5  6  4  0  0  0  0
  6  7  4  0  0  0  0
  8  7  1  4  0  0  0
  8  9  2  0  0  0  0
  9 10  1  0  0  0  0
 10 11  4  0  0  0  0
 11 12  4  0  0  0  0
 12 13  4  0  0  0  0
 13 14  4  0  0  0  0
 14 15  4  0  0  0  0
 10 15  4  0  0  0  0
 15 16  1  0  0  0  0
 16 17  2  0  0  0  0
 16 18  1  0  0  0  0
  7 19  4  0  0  0  0
 19 20  4  0  0  0  0
  4 20  4  0  0  0  0
M  END
> <activity>
109.1

> <InChiKey>
CEQFOVLGLXCDCX-UHFFFAOYSA-N

$$$$

  Mrv2220 08292413132D          

 11 11  0  0  0  0            999 V2000
    0.0000    3.3000    0.0000 C   0  0  0  0  0  0  0  0  0  0  0  0
    0.0000    2.4750    0.0000 O   0  0  0  0  0  0  0  0  0  0  0  0
    0.7145    2.0625    0.0000 C   0  0  0  0  0  0  0  0  0  0  0  0
    1.4289    2.4750    0.0000 O   0  0  0  0  0  0  0  0  0  0  0  0
    0.7145    1.2375    0.0000 C   0  0  0  0  0  0  0  0  0  0  0  0
    1.4289    0.8250    0.0000 C   0  0  0  0  0  0  0  0  0  0  0  0
    1.4289   -0.0000    0.0000 C   0  0  0  0  0  0  0  0  0  0  0  0
    0.7145   -0.4125    0.0000 C   0  0  0  0  0  0  0  0  0  0  0  0
    0.0000    0.0000    0.0000 C   0  0  0  0  0  0  0  0  0  0  0  0
    0.0000    0.8250    0.0000 C   0  0  0  0  0  0  0  0  0  0  0  0
   -0.7145    1.2375    0.0000 O   0  0  0  0  0  0  0  0  0  0  0  0
  1  2  1  0  0  0  0
  2  3  1  0  0  0  0
  3  4  2  0  0  0  0
  3  5  1  0  0  0  0
  5  6  4  0  0  0  0
  6  7  4  0  0  0  0
  7  8  4  0  0  0  0
  8  9  4  0  0  0  0
  9 10  4  0  0  0  0
  5 10  4  0  0  0  0
 10 11  1  0  0  0  0
M  END
> <activity>
33.2

> <InChiKey>
OSWPMRLSEDHDFF-UHFFFAOYSA-N

$$$$

  Mrv2220 08292413132D          

 11 11  0  0  0  0            999 V2000
   -0.7145    3.7125    0.0000 C   0  0  0  0  0  0  0  0  0  0  0  0
    0.0000    3.3000    0.0000 C   0  0  0  0  0  0  0  0  0  0  0  0
    0.7145    3.7125    0.0000 O   0  0  0  0  0  0  0  0  0  0  0  0
    0.0000    2.4750    0.0000 C   0  0  0  0  0  0  0  0  0  0  0  0
    0.7145    2.0625    0.0000 C   0  0  0  0  0  0  0  0  0  0  0  0
    0.7145    1.2375    0.0000 C   0  0  0  0  0  0  0  0  0  0  0  0
    1.4289    0.8250    0.0000 C   0  0  0  0  0  0  0  0  0  0  0  0
    1.4289   -0.0000    0.0000 C   0  0  0  0  0  0  0  0  0  0  0  0
    0.7145   -0.4125    0.0000 C   0  0  0  0  0  0  0  0  0  0  0  0
    0.0000    0.0000    0.0000 C   0  0  0  0  0  0  0  0  0  0  0  0
    0.0000    0.8250    0.0000 C   0  0  0  0  0  0  0  0  0  0  0  0
  1  2  1  0  0  0  0
  2  3  2  0  0  0  0
  4  2  1  4  0  0  0
  4  5  2  0  0  0  0
  5  6  1  0  0  0  0
  6  7  4  0  0  0  0
  7  8  4  0  0  0  0
  8  9  4  0  0  0  0
  9 10  4  0  0  0  0
 10 11  4  0  0  0  0
  6 11  4  0  0  0  0
M  END
> <activity>
27.3

> <InChiKey>
BWHOZHOGCMHOBV-UHFFFAOYSA-N

$$$$

  Mrv2220 08292413132D          

 20 22  0  0  0  0            999 V2000
    0.0000   -2.4750    0.0000 C   0  0  0  0  0  0  0  0  0  0  0  0
    0.7145   -2.8875    0.0000 N   0  0  0  0  0  0  0  0  0  0  0  0
    0.7145   -3.7125    0.0000 C   0  0  0  0  0  0  0  0  0  0  0  0
    1.4289   -2.4750    0.0000 C   0  0  0  0  0  0  0  0  0  0  0  0
    1.4289   -1.6500    0.0000 C   0  0  0  0  0  0  0  0  0  0  0  0
    2.1434   -1.2375    0.0000 C   0  0  0  0  0  0  0  0  0  0  0  0
    2.8579   -1.6500    0.0000 C   0  0  0  0  0  0  0  0  0  0  0  0
    3.5724   -1.2375    0.0000 N   0  0  0  0  0  0  0  0  0  0  0  0
    4.2868   -1.6500    0.0000 C   0  0  0  0  0  0  0  0  0  0  0  0
    5.0013   -1.2375    0.0000 C   0  0  0  0  0  0  0  0  0  0  0  0
    5.7158   -1.6500    0.0000 C   0  0  0  0  0  0  0  0  0  0  0  0
    5.7158   -2.4750    0.0000 C   0  0  0  0  0  0  0  0  0  0  0  0
    6.4302   -2.8875    0.0000 N   0  0  0  0  0  0  0  0  0  0  0  0
    7.1447   -2.4750    0.0000 C   0  0  0  0  0  0  0  0  0  0  0  0
    6.4302   -3.7125    0.0000 C   0  0  0  0  0  0  0  0  0  0  0  0
    5.0013   -2.8875    0.0000 C   0  0  0  0  0  0  0  0  0  0  0  0
    4.2868   -2.4750    0.0000 C   0  0  0  0  0  0  0  0  0  0  0  0
    3.5724   -2.8875    0.0000 S   0  3  0  0  0  0  0  0  0  0  0  0
    2.8579   -2.4750    0.0000 C   0  0  0  0  0  0  0  0  0  0  0  0
    2.1434   -2.8875    0.0000 C   0  0  0  0  0  0  0  0  0  0  0  0
  1  2  1  0  0  0  0
  2  3  1  0  0  0  0
  2  4  1  0  0  0  0
  4  5  4  0  0  0  0
  5  6  4  0  0  0  0
  6  7  4  0  0  0  0
  7  8  4  0  0  0  0
  8  9  4  0  0  0  0
  9 10  4  0  0  0  0
 10 11  4  0  0  0  0
 11 12  4  0  0  0  0
 12 13  1  0  0  0  0
 13 14  1  0  0  0  0
 13 15  1  0  0  0  0
 12 16  4  0  0  0  0
 16 17  4  0  0  0  0
  9 17  4  0  0  0  0
 17 18  4  0  0  0  0
 18 19  4  0  0  0  0
  7 19  4  0  0  0  0
 19 20  4  0  0  0  0
  4 20  4  0  0  0  0
M  CHG  1  18   1
M  END
> <activity>
49.3

> <InChiKey>
RBTBFTRPCNLSDE-UHFFFAOYSA-N

$$$$

  Mrv2220 08292413132D          

 13 13  0  0  0  0            999 V2000
    0.0000    3.3000    0.0000 C   0  0  0  0  0  0  0  0  0  0  0  0
    0.0000    2.4750    0.0000 C   0  0  0  0  0  0  0  0  0  0  0  0
    0.7145    2.0625    0.0000 C   0  0  0  0  0  0  0  0  0  0  0  0
    0.7145    1.2375    0.0000 C   0  0  0  0  0  0  0  0  0  0  0  0
    1.4289    0.8250    0.0000 C   0  0  0  0  0  0  0  0  0  0  0  0
    1.4289   -0.0000    0.0000 C   0  0  0  0  0  0  0  0  0  0  0  0
    0.7145   -0.4125    0.0000 C   0  0  0  0  0  0  0  0  0  0  0  0
    0.7145   -1.2375    0.0000 O   0  0  0  0  0  0  0  0  0  0  0  0
    1.4289   -1.6500    0.0000 C   0  0  0  0  0  0  0  0  0  0  0  0
    0.0000    0.0000    0.0000 C   0  0  0  0  0  0  0  0  0  0  0  0
   -0.7145   -0.4125    0.0000 O   0  0  0  0  0  0  0  0  0  0  0  0
   -1.4289    0.0000    0.0000 C   0  0  0  0  0  0  0  0  0  0  0  0
    0.0000    0.8250    0.0000 C   0  0  0  0  0  0  0  0  0  0  0  0
  1  2  2  0  0  0  0
  2  3  1  0  0  0  0
  3  4  1  0  0  0  0
  4  5  4  0  0  0  0
  5  6  4  0  0  0  0
  6  7  4  0  0  0  0
  7  8  1  0  0  0  0
  8  9  1  0  0  0  0
  7 10  4  0  0  0  0
 10 11  1  0  0  0  0
 11 12  1  0  0  0  0
 10 13  4  0  0  0  0
  4 13  4  0  0  0  0
M  END
> <activity>
59.5

> <InChiKey>
ZYEMGPIYFIJGTP-UHFFFAOYSA-N

$$$$

  Mrv2220 08292413132D          

 15 15  0  0  0  0            999 V2000
    3.5724    3.7125    0.0000 C   0  0  0  0  0  0  0  0  0  0  0  0
    2.8579    3.3000    0.0000 C   0  0  0  0  0  0  0  0  0  0  0  0
    2.8579    2.4750    0.0000 C   0  0  0  0  0  0  0  0  0  0  0  0
    3.5724    2.0625    0.0000 O   0  0  0  0  0  0  0  0  0  0  0  0
    2.1434    2.0625    0.0000 C   0  0  0  0  0  0  0  0  0  0  0  0
    2.1434    1.2375    0.0000 C   0  0  0  0  0  0  0  0  0  0  0  0
    1.4289    0.8250    0.0000 C   0  0  0  0  0  0  0  0  0  0  0  0
    1.4289   -0.0000    0.0000 C   0  0  0  0  0  0  0  0  0  0  0  0
    2.1434   -0.4125    0.0000 C   0  0  0  0  0  0  0  0  0  0  0  0
    0.7145   -0.4125    0.0000 C   0  0  0  0  0  0  0  0  0  0  0  0
    0.0000    0.0000    0.0000 C   0  0  0  0  0  0  0  0  0  0  0  0
    0.0000    0.8250    0.0000 C   0  0  0  0  0  0  0  0  0  0  0  0
    0.7145    1.2375    0.0000 C   0  0  0  0  0  0  0  0  0  0  0  0
    0.3272    1.9659    0.0000 C   0  0  0  0  0  0  0  0  0  0  0  0
    1.1018    1.9659    0.0000 C   0  0  0  0  0  0  0  0  0  0  0  0
  1  2  1  0  0  0  0
  2  3  1  0  0  0  0
  3  4  2  0  0  0  0
  5  3  1  4  0  0  0
  5  6  2  0  0  0  0
  6  7  1  0  0  0  0
  7  8  1  0  0  0  0
  8  9  1  0  0  0  0
  8 10  2  0  0  0  0
 10 11  1  0  0  0  0
 11 12  1  0  0  0  0
 12 13  1  0  0  0  0
  7 13  1  0  0  0  0
 13 14  1  0  0  0  0
 13 15  1  0  0  0  0
M  END
> <activity>
49.8

> <InChiKey>
VPKMGDRERYMTJX-UHFFFAOYSA-N

$$$$

  Mrv2220 08292413132D          

 11 11  0  0  0  0            999 V2000
    0.0000    3.3000    0.0000 C   0  0  0  0  0  0  0  0  0  0  0  0
    0.0000    2.4750    0.0000 O   0  0  0  0  0  0  0  0  0  0  0  0
    0.7145    2.0625    0.0000 C   0  0  0  0  0  0  0  0  0  0  0  0
    1.4289    2.4750    0.0000 O   0  0  0  0  0  0  0  0  0  0  0  0
    0.7145    1.2375    0.0000 C   0  0  0  0  0  0  0  0  0  0  0  0
    1.4289    0.8250    0.0000 C   0  0  0  0  0  0  0  0  0  0  0  0
    1.4289   -0.0000    0.0000 C   0  0  0  0  0  0  0  0  0  0  0  0
    0.7145   -0.4125    0.0000 C   0  0  0  0  0  0  0  0  0  0  0  0
    0.7145   -1.2375    0.0000 O   0  0  0  0  0  0  0  0  0  0  0  0
    0.0000    0.0000    0.0000 C   0  0  0  0  0  0  0  0  0  0  0  0
    0.0000    0.8250    0.0000 C   0  0  0  0  0  0  0  0  0  0  0  0
  1  2  1  0  0  0  0
  2  3  1  0  0  0  0
  3  4  2  0  0  0  0
  3  5  1  0  0  0  0
  5  6  4  0  0  0  0
  6  7  4  0  0  0  0
  7  8  4  0  0  0  0
  8  9  1  0  0  0  0
  8 10  4  0  0  0  0
 10 11  4  0  0  0  0
  5 11  4  0  0  0  0
M  END
> <activity>
51.5

> <InChiKey>
LXCFILQKKLGQFO-UHFFFAOYSA-N

$$$$

  Mrv2220 08292413132D          

 14 14  0  0  0  0            999 V2000
    0.0000    2.4750    0.0000 C   0  0  0  0  0  0  0  0  0  0  0  0
    0.7145    2.0625    0.0000 S   0  0  0  0  0  0  0  0  0  0  0  0
    0.7145    1.2375    0.0000 C   0  0  0  0  0  0  0  0  0  0  0  0
    1.4289    0.8250    0.0000 N   0  0  0  0  0  0  0  0  0  0  0  0
    1.4289   -0.0000    0.0000 N   0  0  0  0  0  0  0  0  0  0  0  0
    0.7145   -0.4125    0.0000 C   0  0  0  0  0  0  0  0  0  0  0  0
    0.7145   -1.2375    0.0000 C   0  0  0  0  0  0  0  0  0  0  0  0
    0.7145   -2.0625    0.0000 C   0  0  0  0  0  0  0  0  0  0  0  0
   -0.1105   -1.2375    0.0000 C   0  0  0  0  0  0  0  0  0  0  0  0
    1.5395   -1.2375    0.0000 C   0  0  0  0  0  0  0  0  0  0  0  0
    0.0000    0.0000    0.0000 C   0  0  0  0  0  0  0  0  0  0  0  0
   -0.7145   -0.4125    0.0000 O   0  0  0  0  0  0  0  0  0  0  0  0
    0.0000    0.8250    0.0000 N   0  0  0  0  0  0  0  0  0  0  0  0
   -0.7145    1.2375    0.0000 N   0  0  0  0  0  0  0  0  0  0  0  0
  1  2  1  0  0  0  0
  2  3  1  0  0  0  0
  3  4  4  0  0  0  0
  4  5  4  0  0  0  0
  5  6  4  0  0  0  0
  6  7  1  0  0  0  0
  7  8  1  0  0  0  0
  7  9  1  0  0  0  0
  7 10  1  0  0  0  0
  6 11  4  0  0  0  0
 11 12  2  0  0  0  0
 11 13  4  0  0  0  0
  3 13  4  0  0  0  0
 13 14  1  0  0  0  0
M  END
> <activity>
10.7

> <InChiKey>
FOXFZRUHNHCZPX-UHFFFAOYSA-N

$$$$

  Mrv2220 08292413132D          

 22 26  0  0  0  0            999 V2000
    2.2768    2.5721    0.0000 Cl  0  0  0  0  0  0  0  0  0  0  0  0
    1.6897    1.9926    0.0000 C   0  0  0  0  0  0  0  0  0  0  0  0
    1.1380    2.6060    0.0000 Cl  0  0  0  0  0  0  0  0  0  0  0  0
    2.2888    1.4396    0.0000 C   0  0  0  0  0  0  0  0  0  0  0  0
    3.0195    1.8227    0.0000 Cl  0  0  0  0  0  0  0  0  0  0  0  0
    1.6338    0.9269    0.0000 C   0  0  0  0  0  0  0  0  0  0  0  0
    1.3741    1.7100    0.0000 Cl  0  0  0  0  0  0  0  0  0  0  0  0
    1.9006    0.1070    0.0000 C   0  0  0  0  0  0  0  0  0  0  0  0
    2.4605   -0.4989    0.0000 Cl  0  0  0  0  0  0  0  0  0  0  0  0
    1.2397   -0.4034    0.0000 C   0  0  0  0  0  0  0  0  0  0  0  0
    1.7768   -1.0296    0.0000 Cl  0  0  0  0  0  0  0  0  0  0  0  0
    0.6419   -0.9720    0.0000 Cl  0  0  0  0  0  0  0  0  0  0  0  0
    0.6352    0.1701    0.0000 C   0  0  0  0  0  0  0  0  0  0  0  0
   -0.1801    0.2964    0.0000 Cl  0  0  0  0  0  0  0  0  0  0  0  0
    0.6891    0.9493    0.0000 C   0  0  0  0  0  0  0  0  0  0  0  0
   -0.0898    1.2214    0.0000 Cl  0  0  0  0  0  0  0  0  0  0  0  0
    1.0428    1.4630    0.0000 C   0  0  0  0  0  0  0  0  0  0  0  0
    0.4357    2.0216    0.0000 Cl  0  0  0  0  0  0  0  0  0  0  0  0
    1.4146    0.5482    0.0000 C   0  0  0  0  0  0  0  0  0  0  0  0
    1.6433   -0.2444    0.0000 Cl  0  0  0  0  0  0  0  0  0  0  0  0
    2.3994    0.6571    0.0000 C   0  0  0  0  0  0  0  0  0  0  0  0
    3.1341    1.0324    0.0000 Cl  0  0  0  0  0  0  0  0  0  0  0  0
  1  2  1  0  0  0  0
  2  3  1  0  0  0  0
  2  4  1  0  0  0  0
  4  5  1  0  0  0  0
  4  6  1  0  0  0  0
  6  7  1  0  0  0  0
  6  8  1  0  0  0  0
  8  9  1  0  0  0  0
  8 10  1  0  0  0  0
 10 11  1  0  0  0  0
 10 12  1  0  0  0  0
 10 13  1  0  0  0  0
 13 14  1  0  0  0  0
 13 15  1  0  0  0  0
  6 15  1  0  0  0  0
 15 16  1  0  0  0  0
 15 17  1  0  0  0  0
  2 17  1  0  0  0  0
 17 18  1  0  0  0  0
 17 19  1  0  0  0  0
 13 19  1  0  0  0  0
 19 20  1  0  0  0  0
 19 21  1  0  0  0  0
  4 21  1  0  0  0  0
  8 21  1  0  0  0  0
 21 22  1  0  0  0  0
M  END
> <activity>
17.6

> <InChiKey>
GVYLCNUFSHDAAW-UHFFFAOYSA-N

$$$$

  Mrv2220 08292413132D          

 39 43  0  0  0  0            999 V2000
    8.5582   -0.2430    0.0000 C   0  0  0  0  0  0  0  0  0  0  0  0
    8.3033    0.5417    0.0000 C   0  0  0  0  0  0  0  0  0  0  0  0
    7.4963    0.7132    0.0000 C   0  0  0  0  0  0  0  0  0  0  0  0
    7.2413    1.4978    0.0000 C   0  0  0  0  0  0  0  0  0  0  0  0
    6.4344    1.6693    0.0000 C   0  0  0  0  0  0  0  0  0  0  0  0
    5.8823    1.0562    0.0000 C   0  0  0  0  0  0  0  0  0  0  0  0
    5.0754    1.2278    0.0000 C   0  0  0  0  0  0  0  0  0  0  0  0
    4.8204    2.0124    0.0000 C   0  0  0  0  0  0  0  0  0  0  0  0
    5.3725    2.6255    0.0000 C   0  0  0  0  0  0  0  0  0  0  0  0
    6.1794    2.4540    0.0000 N   0  0  0  0  0  0  0  0  0  0  0  0
    4.9600    3.3400    0.0000 C   0  0  0  0  0  0  0  0  0  0  0  0
    5.2955    4.0936    0.0000 C   0  0  0  0  0  0  0  0  0  0  0  0
    4.8106    4.7611    0.0000 C   0  0  0  0  0  0  0  0  0  0  0  0
    5.1462    5.5147    0.0000 C   0  0  0  0  0  0  0  0  0  0  0  0
    5.9666    5.6010    0.0000 C   0  0  0  0  0  0  0  0  0  0  0  0
    6.3022    6.3547    0.0000 O   0  0  0  0  0  0  0  0  0  0  0  0
    5.8173    7.0221    0.0000 C   0  0  0  0  0  0  0  0  0  0  0  0
    6.4516    4.9335    0.0000 C   0  0  0  0  0  0  0  0  0  0  0  0
    6.1160    4.1799    0.0000 C   0  0  0  0  0  0  0  0  0  0  0  0
    6.6009    3.5124    0.0000 C   0  0  0  0  0  0  0  0  0  0  0  0
    7.4214    3.5987    0.0000 C   0  0  0  0  0  0  0  0  0  0  0  0
    7.9063    2.9312    0.0000 C   0  0  0  0  0  0  0  0  0  0  0  0
    7.7570    4.3523    0.0000 C   0  0  0  0  0  0  0  0  0  0  0  0
    7.2720    5.0198    0.0000 O   0  0  0  0  0  0  0  0  0  0  0  0
    8.5774    4.4386    0.0000 O   0  0  0  0  0  0  0  0  0  0  0  0
    4.1530    3.1684    0.0000 C   0  0  0  0  0  0  0  0  0  0  0  0
    3.5399    3.7205    0.0000 C   0  0  0  0  0  0  0  0  0  0  0  0
    2.7553    3.4655    0.0000 O   0  0  0  0  0  0  0  0  0  0  0  0
    3.7114    4.5274    0.0000 O   0  0  0  0  0  0  0  0  0  0  0  0
    4.0668    2.3479    0.0000 C   0  0  0  0  0  0  0  0  0  0  0  0
    3.3523    1.9354    0.0000 C   0  0  0  0  0  0  0  0  0  0  0  0
    3.3523    1.1104    0.0000 C   0  0  0  0  0  0  0  0  0  0  0  0
    2.6378    0.6979    0.0000 C   0  0  0  0  0  0  0  0  0  0  0  0
    1.9233    1.1104    0.0000 C   0  0  0  0  0  0  0  0  0  0  0  0
    1.9233    1.9354    0.0000 C   0  0  0  0  0  0  0  0  0  0  0  0
    2.6378    2.3479    0.0000 C   0  0  0  0  0  0  0  0  0  0  0  0
    1.1387    2.1904    0.0000 O   0  0  0  0  0  0  0  0  0  0  0  0
    0.6538    1.5229    0.0000 C   0  0  0  0  0  0  0  0  0  0  0  0
    1.1387    0.8555    0.0000 O   0  0  0  0  0  0  0  0  0  0  0  0
  1  2  1  0  0  0  0
  2  3  1  0  0  0  0
  3  4  1  0  0  0  0
  4  5  1  0  0  0  0
  5  6  4  0  0  0  0
  6  7  4  0  0  0  0
  7  8  4  0  0  0  0
  8  9  4  0  0  0  0
  9 10  4  0  0  0  0
  5 10  4  0  0  0  0
  9 11  1  0  0  0  0
 11 12  1  0  0  0  0
 12 13  4  0  0  0  0
 13 14  4  0  0  0  0
 14 15  4  0  0  0  0
 15 16  1  0  0  0  0
 16 17  1  0  0  0  0
 15 18  4  0  0  0  0
 18 19  4  0  0  0  0
 12 19  4  0  0  0  0
 19 20  1  0  0  0  0
 20 21  1  0  0  0  0
 21 22  1  0  0  0  0
 21 23  1  0  0  0  0
 23 24  2  0  0  0  0
 23 25  1  0  0  0  0
 11 26  1  0  0  0  0
 26 27  1  0  0  0  0
 27 28  2  0  0  0  0
 27 29  1  0  0  0  0
 26 30  1  0  0  0  0
  8 30  1  0  0  0  0
 30 31  1  0  0  0  0
 31 32  4  0  0  0  0
 32 33  4  0  0  0  0
 33 34  4  0  0  0  0
 34 35  4  0  0  0  0
 35 36  4  0  0  0  0
 31 36  4  0  0  0  0
 35 37  1  0  0  0  0
 37 38  1  0  0  0  0
 38 39  1  0  0  0  0
 34 39  1  0  0  0  0
M  END
> <activity>
69.3

> <InChiKey>
IUHMIOAKWHUFKU-UHFFFAOYSA-N

$$$$

  Mrv2220 08292413132D          

 42 46  0  0  0  0            999 V2000
    4.4260   -2.2059    0.0000 C   0  0  0  0  0  0  0  0  0  0  0  0
    5.1404   -2.6184    0.0000 C   0  0  0  0  0  0  0  0  0  0  0  0
    5.1404   -3.4434    0.0000 N   0  0  0  0  0  0  0  0  0  0  0  0
    5.8079   -3.9283    0.0000 N   0  0  0  0  0  0  0  0  0  0  0  0
    5.5529   -4.7130    0.0000 C   0  0  0  0  0  0  0  0  0  0  0  0
    6.0379   -5.3804    0.0000 C   0  0  0  0  0  0  0  0  0  0  0  0
    6.8583   -5.2942    0.0000 C   0  0  0  0  0  0  0  0  0  0  0  0
    7.1939   -4.5405    0.0000 C   0  0  0  0  0  0  0  0  0  0  0  0
    8.0144   -4.4543    0.0000 C   0  0  0  0  0  0  0  0  0  0  0  0
    8.4993   -5.1217    0.0000 C   0  0  0  0  0  0  0  0  0  0  0  0
    8.1637   -5.8754    0.0000 C   0  0  0  0  0  0  0  0  0  0  0  0
    7.3433   -5.9616    0.0000 C   0  0  0  0  0  0  0  0  0  0  0  0
    4.7279   -4.7130    0.0000 C   0  0  0  0  0  0  0  0  0  0  0  0
    4.4730   -3.9283    0.0000 C   0  0  0  0  0  0  0  0  0  0  0  0
    3.6884   -3.6734    0.0000 C   0  0  0  0  0  0  0  0  0  0  0  0
    3.0753   -4.2254    0.0000 C   0  0  0  0  0  0  0  0  0  0  0  0
    2.2907   -3.9705    0.0000 C   0  0  0  0  0  0  0  0  0  0  0  0
    2.1191   -3.1635    0.0000 N   0  0  0  0  0  0  0  0  0  0  0  0
    1.3345   -2.9086    0.0000 C   0  0  0  0  0  0  0  0  0  0  0  0
    0.7214   -3.4606    0.0000 C   0  0  0  0  0  0  0  0  0  0  0  0
    0.8077   -4.2811    0.0000 C   0  0  0  0  0  0  0  0  0  0  0  0
    0.0540   -4.6167    0.0000 C   0  0  0  0  0  0  0  0  0  0  0  0
   -0.1175   -5.4236    0.0000 N   0  0  0  0  0  0  0  0  0  0  0  0
   -0.9022   -5.6786    0.0000 C   0  0  0  0  0  0  0  0  0  0  0  0
    0.4955   -5.9757    0.0000 C   0  0  0  0  0  0  0  0  0  0  0  0
    1.2802   -5.7207    0.0000 C   0  0  0  0  0  0  0  0  0  0  0  0
    1.4517   -4.9137    0.0000 O   0  0  0  0  0  0  0  0  0  0  0  0
    1.8933   -6.2728    0.0000 O   0  0  0  0  0  0  0  0  0  0  0  0
    0.3240   -6.7826    0.0000 C   0  0  0  0  0  0  0  0  0  0  0  0
   -0.4606   -7.0376    0.0000 C   0  0  0  0  0  0  0  0  0  0  0  0
    0.9371   -7.3347    0.0000 C   0  0  0  0  0  0  0  0  0  0  0  0
   -0.4981   -4.0036    0.0000 C   0  0  0  0  0  0  0  0  0  0  0  0
   -0.0856   -3.2891    0.0000 C   0  0  0  0  0  0  0  0  0  0  0  0
   -0.4211   -2.5354    0.0000 C   0  0  0  0  0  0  0  0  0  0  0  0
   -1.2416   -2.4492    0.0000 C   0  0  0  0  0  0  0  0  0  0  0  0
   -1.5771   -1.6955    0.0000 C   0  0  0  0  0  0  0  0  0  0  0  0
   -1.0922   -1.0281    0.0000 C   0  0  0  0  0  0  0  0  0  0  0  0
   -0.2717   -1.1143    0.0000 C   0  0  0  0  0  0  0  0  0  0  0  0
    0.2132   -0.4469    0.0000 F   0  0  0  0  0  0  0  0  0  0  0  0
    0.0638   -1.8680    0.0000 C   0  0  0  0  0  0  0  0  0  0  0  0
    2.7322   -2.6115    0.0000 C   0  0  0  0  0  0  0  0  0  0  0  0
    3.5169   -2.8664    0.0000 C   0  0  0  0  0  0  0  0  0  0  0  0
  1  2  1  0  0  0  0
  2  3  1  0  0  0  0
  3  4  4  0  0  0  0
  4  5  4  0  0  0  0
  5  6  1  0  0  0  0
  6  7  1  0  0  0  0
  7  8  4  0  0  0  0
  8  9  4  0  0  0  0
  9 10  4  0  0  0  0
 10 11  4  0  0  0  0
 11 12  4  0  0  0  0
  7 12  4  0  0  0  0
  5 13  4  0  0  0  0
 13 14  4  0  0  0  0
  3 14  4  0  0  0  0
 14 15  1  0  0  0  0
 15 16  1  0  0  0  0
 16 17  1  0  0  0  0
 17 18  1  0  0  0  0
 18 19  1  0  0  0  0
 19 20  1  0  0  0  0
 20 21  1  0  0  0  0
 21 22  1  0  0  0  0
 22 23  1  0  0  0  0
 23 24  1  0  0  0  0
 23 25  1  0  0  0  0
 25 26  1  0  0  0  0
 26 27  2  0  0  0  0
 26 28  1  0  0  0  0
 25 29  1  0  0  0  0
 29 30  1  0  0  0  0
 29 31  1  0  0  0  0
 22 32  1  0  0  0  0
 32 33  1  0  0  0  0
 20 33  1  0  0  0  0
 33 34  1  0  0  0  0
 34 35  4  0  0  0  0
 35 36  4  0  0  0  0
 36 37  4  0  0  0  0
 37 38  4  0  0  0  0
 38 39  1  0  0  0  0
 38 40  4  0  0  0  0
 34 40  4  0  0  0  0
 18 41  1  0  0  0  0
 41 42  1  0  0  0  0
 15 42  1  0  0  0  0
M  END
> <activity>
9.6

> <InChiKey>
ZTENZJJCFACIAK-UHFFFAOYSA-N

$$$$

  Mrv2220 08292413132D          

 33 36  0  0  0  0            999 V2000
   -4.1688    1.7821    0.0000 C   0  0  0  0  0  0  0  0  0  0  0  0
   -3.5014    1.2972    0.0000 O   0  0  0  0  0  0  0  0  0  0  0  0
   -2.7477    1.6328    0.0000 C   0  0  0  0  0  0  0  0  0  0  0  0
   -2.6615    2.4532    0.0000 C   0  0  0  0  0  0  0  0  0  0  0  0
   -1.9078    2.7888    0.0000 O   0  0  0  0  0  0  0  0  0  0  0  0
   -1.2404    2.3039    0.0000 C   0  0  0  0  0  0  0  0  0  0  0  0
   -1.3266    1.4834    0.0000 C   0  0  0  0  0  0  0  0  0  0  0  0
   -2.0803    1.1478    0.0000 C   0  0  0  0  0  0  0  0  0  0  0  0
   -2.1665    0.3274    0.0000 N   0  0  0  0  0  0  0  0  0  0  0  0
   -1.4991   -0.1576    0.0000 C   0  0  0  0  0  0  0  0  0  0  0  0
   -0.7145    0.0974    0.0000 C   0  0  0  0  0  0  0  0  0  0  0  0
   -0.2295   -0.5701    0.0000 C   0  0  0  0  0  0  0  0  0  0  0  0
   -0.7145   -1.2375    0.0000 C   0  0  0  0  0  0  0  0  0  0  0  0
    0.0000   -1.6500    0.0000 C   0  0  0  0  0  0  0  0  0  0  0  0
    0.0000   -2.4750    0.0000 O   0  0  0  0  0  0  0  0  0  0  0  0
    0.7145   -1.2375    0.0000 N   0  0  0  0  0  0  0  0  0  0  0  0
    0.7145   -0.4125    0.0000 C   0  0  0  0  0  0  0  0  0  0  0  0
    1.4289    0.0000    0.0000 C   0  0  0  0  0  0  0  0  0  0  0  0
    2.1434   -0.4125    0.0000 C   0  0  0  0  0  0  0  0  0  0  0  0
    2.8579    0.0000    0.0000 N   0  0  0  0  0  0  0  0  0  0  0  0
    3.5724   -0.4125    0.0000 C   0  0  0  0  0  0  0  0  0  0  0  0
    3.5724   -1.2375    0.0000 C   0  0  0  0  0  0  0  0  0  0  0  0
    4.2868   -1.6500    0.0000 C   0  0  0  0  0  0  0  0  0  0  0  0
    5.0013   -2.0625    0.0000 F   0  0  0  0  0  0  0  0  0  0  0  0
    3.8743   -2.3645    0.0000 F   0  0  0  0  0  0  0  0  0  0  0  0
    4.6993   -0.9355    0.0000 F   0  0  0  0  0  0  0  0  0  0  0  0
    2.8579   -1.6500    0.0000 C   0  0  0  0  0  0  0  0  0  0  0  0
    2.1434   -1.2375    0.0000 C   0  0  0  0  0  0  0  0  0  0  0  0
    1.4289   -1.6500    0.0000 C   0  0  0  0  0  0  0  0  0  0  0  0
   -1.0500   -1.9912    0.0000 C   0  0  0  0  0  0  0  0  0  0  0  0
   -1.8705   -2.0774    0.0000 C   0  0  0  0  0  0  0  0  0  0  0  0
   -0.5651   -2.6586    0.0000 C   0  0  0  0  0  0  0  0  0  0  0  0
   -1.4991   -0.9826    0.0000 C   0  0  0  0  0  0  0  0  0  0  0  0
  1  2  1  0  0  0  0
  2  3  1  0  0  0  0
  3  4  1  0  0  0  0
  4  5  1  0  0  0  0
  5  6  1  0  0  0  0
  6  7  1  0  0  0  0
  7  8  1  0  0  0  0
  3  8  1  0  0  0  0
  8  9  1  0  0  0  0
  9 10  1  0  0  0  0
 10 11  1  0  0  0  0
 11 12  1  0  0  0  0
 12 13  1  0  0  0  0
 13 14  1  0  0  0  0
 14 15  2  0  0  0  0
 14 16  1  0  0  0  0
 16 17  1  0  0  0  0
 17 18  1  0  0  0  0
 18 19  1  0  0  0  0
 19 20  4  0  0  0  0
 20 21  4  0  0  0  0
 21 22  4  0  0  0  0
 22 23  1  0  0  0  0
 23 24  1  0  0  0  0
 23 25  1  0  0  0  0
 23 26  1  0  0  0  0
 22 27  4  0  0  0  0
 27 28  4  0  0  0  0
 19 28  4  0  0  0  0
 28 29  1  0  0  0  0
 16 29  1  0  0  0  0
 13 30  1  0  0  0  0
 30 31  1  0  0  0  0
 30 32  1  0  0  0  0
 13 33  1  0  0  0  0
 10 33  1  0  0  0  0
M  END
> <activity>
20.9

> <InChiKey>
MTMDXAIUENDNDL-UHFFFAOYSA-N

$$$$

  Mrv2220 08292413132D          

 12 12  0  0  0  0            999 V2000
   -0.5724    3.8382    0.0000 C   0  0  0  0  0  0  0  0  0  0  0  0
    0.1421    3.4257    0.0000 C   0  0  0  0  0  0  0  0  0  0  0  0
    0.1421    2.6007    0.0000 S   0  0  0  0  0  0  0  0  0  0  0  0
    0.8566    2.1882    0.0000 C   0  0  0  0  0  0  0  0  0  0  0  0
    1.5710    2.6007    0.0000 O   0  0  0  0  0  0  0  0  0  0  0  0
    0.8566    1.3632    0.0000 N   0  0  0  0  0  0  0  0  0  0  0  0
    1.5999    1.0053    0.0000 C   0  0  0  0  0  0  0  0  0  0  0  0
    1.7834    0.2009    0.0000 C   0  0  0  0  0  0  0  0  0  0  0  0
    1.2691   -0.4441    0.0000 C   0  0  0  0  0  0  0  0  0  0  0  0
    0.4441   -0.4441    0.0000 C   0  0  0  0  0  0  0  0  0  0  0  0
   -0.0703    0.2009    0.0000 C   0  0  0  0  0  0  0  0  0  0  0  0
    0.1133    1.0053    0.0000 C   0  0  0  0  0  0  0  0  0  0  0  0
  1  2  1  0  0  0  0
  2  3  1  0  0  0  0
  3  4  1  0  0  0  0
  4  5  2  0  0  0  0
  4  6  1  0  0  0  0
  6  7  1  0  0  0  0
  7  8  1  0  0  0  0
  8  9  1  0  0  0  0
  9 10  1  0  0  0  0
 10 11  1  0  0  0  0
 11 12  1  0  0  0  0
  6 12  1  0  0  0  0
M  END
> <activity>
11.8

> <InChiKey>
DEDOPGXGGQYYMW-UHFFFAOYSA-N

$$$$

  Mrv2220 08292413132D          

 15 16  0  0  0  0            999 V2000
    1.8465   -1.2111    0.0000 O   0  0  0  0  0  0  0  0  0  0  0  0
    1.0396   -1.0396    0.0000 C   0  0  0  0  0  0  0  0  0  0  0  0
    0.4875   -1.6527    0.0000 C   0  0  0  0  0  0  0  0  0  0  0  0
    0.7425   -2.4373    0.0000 Cl  0  0  0  0  0  0  0  0  0  0  0  0
   -0.3194   -1.4811    0.0000 Cl  0  0  0  0  0  0  0  0  0  0  0  0
    0.7846   -0.2549    0.0000 N   0  0  0  0  0  0  0  0  0  0  0  0
    0.0000   -0.0000    0.0000 C   0  0  0  0  0  0  0  0  0  0  0  0
   -0.0000    0.8250    0.0000 C   0  0  0  0  0  0  0  0  0  0  0  0
    0.7846    1.0799    0.0000 O   0  0  0  0  0  0  0  0  0  0  0  0
    1.2695    0.4125    0.0000 C   0  0  0  0  0  0  0  0  0  0  0  0
    1.6820    1.1270    0.0000 C   0  0  0  0  0  0  0  0  0  0  0  0
    2.5070    1.1270    0.0000 C   0  0  0  0  0  0  0  0  0  0  0  0
    2.9195    0.4125    0.0000 C   0  0  0  0  0  0  0  0  0  0  0  0
    2.5070   -0.3020    0.0000 C   0  0  0  0  0  0  0  0  0  0  0  0
    1.6820   -0.3020    0.0000 C   0  0  0  0  0  0  0  0  0  0  0  0
  1  2  2  0  0  0  0
  2  3  1  0  0  0  0
  3  4  1  0  0  0  0
  3  5  1  0  0  0  0
  2  6  1  0  0  0  0
  6  7  1  0  0  0  0
  7  8  1  0  0  0  0
  8  9  1  0  0  0  0
  9 10  1  0  0  0  0
  6 10  1  0  0  0  0
 10 11  1  0  0  0  0
 11 12  1  0  0  0  0
 12 13  1  0  0  0  0
 13 14  1  0  0  0  0
 14 15  1  0  0  0  0
 10 15  1  0  0  0  0
M  END
> <activity>
10.5

> <InChiKey>
QWWHRELOCZEQNZ-UHFFFAOYSA-N

$$$$

  Mrv2220 08292413132D          

 14 13  0  0  0  0            999 V2000
    2.4750    1.4289    0.0000 C   0  0  0  0  0  0  0  0  0  0  0  0
    2.0625    0.7145    0.0000 N   0  0  0  0  0  0  0  0  0  0  0  0
    1.2375    0.7145    0.0000 C   0  0  0  0  0  0  0  0  0  0  0  0
    0.8250    1.4289    0.0000 O   0  0  0  0  0  0  0  0  0  0  0  0
    0.8250    0.0000    0.0000 C   0  0  0  0  0  0  0  0  0  0  0  0
    0.0000    0.0000    0.0000 C   0  0  0  0  0  0  0  0  0  0  0  0
   -0.4125    0.7145    0.0000 C   0  0  0  0  0  0  0  0  0  0  0  0
   -0.4125   -0.7145    0.0000 O   0  0  0  0  0  0  0  0  0  0  0  0
   -1.2375   -0.7145    0.0000 P   0  0  0  0  0  0  0  0  0  0  0  0
   -1.2375    0.1105    0.0000 O   0  0  0  0  0  0  0  0  0  0  0  0
   -2.0625   -0.7145    0.0000 O   0  0  0  0  0  0  0  0  0  0  0  0
   -2.4750   -1.4289    0.0000 C   0  0  0  0  0  0  0  0  0  0  0  0
   -1.2375   -1.5395    0.0000 O   0  0  0  0  0  0  0  0  0  0  0  0
   -1.9520   -1.9520    0.0000 C   0  0  0  0  0  0  0  0  0  0  0  0
  1  2  1  0  0  0  0
  2  3  1  0  0  0  0
  3  4  2  0  0  0  0
  5  3  1  4  0  0  0
  5  6  2  0  0  0  0
  6  7  1  0  0  0  0
  6  8  1  0  0  0  0
  8  9  1  0  0  0  0
  9 10  2  0  0  0  0
  9 11  1  0  0  0  0
 11 12  1  0  0  0  0
  9 13  1  0  0  0  0
 13 14  1  0  0  0  0
M  END
> <activity>
8.0

> <InChiKey>
KRTSDMXIXPKRQR-UHFFFAOYSA-N

$$$$

  Mrv2220 08292413132D          

 13 13  0  0  0  0            999 V2000
    0.0000    3.3000    0.0000 C   0  0  0  0  0  0  0  0  0  0  0  0
    0.0000    2.4750    0.0000 O   0  0  0  0  0  0  0  0  0  0  0  0
    0.7145    2.0625    0.0000 C   0  0  0  0  0  0  0  0  0  0  0  0
    1.4289    2.4750    0.0000 O   0  0  0  0  0  0  0  0  0  0  0  0
    0.7145    1.2375    0.0000 C   0  0  0  0  0  0  0  0  0  0  0  0
    1.4289    0.8250    0.0000 C   0  0  0  0  0  0  0  0  0  0  0  0
    1.4289   -0.0000    0.0000 C   0  0  0  0  0  0  0  0  0  0  0  0
    0.7145   -0.4125    0.0000 C   0  0  0  0  0  0  0  0  0  0  0  0
    0.0000    0.0000    0.0000 C   0  0  0  0  0  0  0  0  0  0  0  0
    0.0000    0.8250    0.0000 C   0  0  0  0  0  0  0  0  0  0  0  0
   -0.7145    1.2375    0.0000 C   0  0  0  0  0  0  0  0  0  0  0  0
   -0.7145    2.0625    0.0000 O   0  0  0  0  0  0  0  0  0  0  0  0
   -1.4289    0.8250    0.0000 O   0  0  0  0  0  0  0  0  0  0  0  0
  1  2  1  0  0  0  0
  2  3  1  0  0  0  0
  3  4  2  0  0  0  0
  3  5  1  0  0  0  0
  5  6  4  0  0  0  0
  6  7  4  0  0  0  0
  7  8  4  0  0  0  0
  8  9  4  0  0  0  0
  9 10  4  0  0  0  0
  5 10  4  0  0  0  0
 10 11  1  0  0  0  0
 11 12  2  0  0  0  0
 11 13  1  0  0  0  0
M  END
> <activity>
16.0

> <InChiKey>
FNJSWIPFHMKRAT-UHFFFAOYSA-N

$$$$

  Mrv2220 08292413132D          

 12 12  0  0  0  0            999 V2000
    0.0000    2.4750    0.0000 O   0  0  0  0  0  0  0  0  0  0  0  0
    0.7145    2.0625    0.0000 C   0  0  0  0  0  0  0  0  0  0  0  0
    1.4289    2.4750    0.0000 O   0  0  0  0  0  0  0  0  0  0  0  0
    0.7145    1.2375    0.0000 C   0  0  0  0  0  0  0  0  0  0  0  0
    1.4289    0.8250    0.0000 C   0  0  0  0  0  0  0  0  0  0  0  0
    1.4289   -0.0000    0.0000 C   0  0  0  0  0  0  0  0  0  0  0  0
    0.7145   -0.4125    0.0000 C   0  0  0  0  0  0  0  0  0  0  0  0
    0.0000    0.0000    0.0000 C   0  0  0  0  0  0  0  0  0  0  0  0
    0.0000    0.8250    0.0000 C   0  0  0  0  0  0  0  0  0  0  0  0
   -0.7145    1.2375    0.0000 C   0  0  0  0  0  0  0  0  0  0  0  0
   -0.7145    2.0625    0.0000 O   0  0  0  0  0  0  0  0  0  0  0  0
   -1.4289    0.8250    0.0000 O   0  0  0  0  0  0  0  0  0  0  0  0
  1  2  2  0  0  0  0
  2  3  1  0  0  0  0
  2  4  1  0  0  0  0
  4  5  4  0  0  0  0
  5  6  4  0  0  0  0
  6  7  4  0  0  0  0
  7  8  4  0  0  0  0
  8  9  4  0  0  0  0
  4  9  4  0  0  0  0
  9 10  1  0  0  0  0
 10 11  2  0  0  0  0
 10 12  1  0  0  0  0
M  END
> <activity>
84.3

> <InChiKey>
XNGIFLGASWRNHJ-UHFFFAOYSA-N

$$$$

  Mrv2220 08292413132D          

 18 17  0  0  0  0            999 V2000
    5.4730    3.9849    0.0000 C   0  0  0  0  0  0  0  0  0  0  0  0
    6.1875    3.5724    0.0000 C   0  0  0  0  0  0  0  0  0  0  0  0
    6.9020    3.9849    0.0000 C   0  0  0  0  0  0  0  0  0  0  0  0
    7.6164    3.5724    0.0000 C   0  0  0  0  0  0  0  0  0  0  0  0
    8.3309    3.9849    0.0000 C   0  0  0  0  0  0  0  0  0  0  0  0
    9.0454    3.5724    0.0000 C   0  0  0  0  0  0  0  0  0  0  0  0
    9.7599    3.9849    0.0000 C   0  0  0  0  0  0  0  0  0  0  0  0
   10.4743    3.5724    0.0000 C   0  0  0  0  0  0  0  0  0  0  0  0
   11.1888    3.9849    0.0000 C   0  0  0  0  0  0  0  0  0  0  0  0
   11.9033    3.5724    0.0000 C   0  0  0  0  0  0  0  0  0  0  0  0
   12.6177    3.9849    0.0000 C   0  0  0  0  0  0  0  0  0  0  0  0
   13.3322    3.5724    0.0000 C   0  0  0  0  0  0  0  0  0  0  0  0
   14.0467    3.9849    0.0000 C   0  0  0  0  0  0  0  0  0  0  0  0
   14.7612    3.5724    0.0000 O   0  0  0  0  0  0  0  0  0  0  0  0
   15.4756    3.9849    0.0000 P   0  0  0  0  0  0  0  0  0  0  0  0
   16.1901    4.3974    0.0000 O   0  0  0  0  0  0  0  0  0  0  0  0
   15.8881    3.2704    0.0000 O   0  0  0  0  0  0  0  0  0  0  0  0
   15.0631    4.6993    0.0000 O   0  0  0  0  0  0  0  0  0  0  0  0
  1  2  1  0  0  0  0
  2  3  1  0  0  0  0
  3  4  1  0  0  0  0
  4  5  1  0  0  0  0
  5  6  1  0  0  0  0
  6  7  1  0  0  0  0
  7  8  1  0  0  0  0
  8  9  1  0  0  0  0
  9 10  1  0  0  0  0
 10 11  1  0  0  0  0
 11 12  1  0  0  0  0
 12 13  1  0  0  0  0
 13 14  1  0  0  0  0
 14 15  1  0  0  0  0
 15 16  2  0  0  0  0
 15 17  1  0  0  0  0
 15 18  1  0  0  0  0
M  END
> <activity>
104.9

> <InChiKey>
GAJQCIFYLSXSEZ-UHFFFAOYSA-N

$$$$

  Mrv2220 08292413132D          

 13 13  0  0  0  0            999 V2000
   -0.7145    3.7125    0.0000 C   0  0  0  0  0  0  0  0  0  0  0  0
    0.0000    3.3000    0.0000 N   0  0  0  0  0  0  0  0  0  0  0  0
    0.7145    3.7125    0.0000 C   0  0  0  0  0  0  0  0  0  0  0  0
    0.0000    2.4750    0.0000 C   0  0  0  0  0  0  0  0  0  0  0  0
   -0.7145    2.0625    0.0000 O   0  0  0  0  0  0  0  0  0  0  0  0
    0.7145    2.0625    0.0000 N   0  0  0  0  0  0  0  0  0  0  0  0
    0.7145    1.2375    0.0000 C   0  0  0  0  0  0  0  0  0  0  0  0
    1.4289    0.8250    0.0000 C   0  0  0  0  0  0  0  0  0  0  0  0
    1.4289   -0.0000    0.0000 C   0  0  0  0  0  0  0  0  0  0  0  0
    0.7145   -0.4125    0.0000 C   0  0  0  0  0  0  0  0  0  0  0  0
    0.7145   -1.2375    0.0000 Cl  0  0  0  0  0  0  0  0  0  0  0  0
    0.0000    0.0000    0.0000 C   0  0  0  0  0  0  0  0  0  0  0  0
    0.0000    0.8250    0.0000 C   0  0  0  0  0  0  0  0  0  0  0  0
  1  2  1  0  0  0  0
  2  3  1  0  0  0  0
  2  4  1  0  0  0  0
  4  5  2  0  0  0  0
  4  6  1  0  0  0  0
  6  7  1  0  0  0  0
  7  8  4  0  0  0  0
  8  9  4  0  0  0  0
  9 10  4  0  0  0  0
 10 11  1  0  0  0  0
 10 12  4  0  0  0  0
 12 13  4  0  0  0  0
  7 13  4  0  0  0  0
M  END
> <activity>
12.9

> <InChiKey>
BMLIZLVNXIYGCK-UHFFFAOYSA-N

$$$$

  Mrv2220 08292413132D          

  6  6  0  0  0  0            999 V2000
    0.7145    1.2375    0.0000 C   0  0  0  0  0  0  0  0  0  0  0  0
    1.4289    0.8250    0.0000 C   0  0  0  0  0  0  0  0  0  0  0  0
    1.4289   -0.0000    0.0000 O   0  0  0  0  0  0  0  0  0  0  0  0
    0.7145   -0.4125    0.0000 C   0  0  0  0  0  0  0  0  0  0  0  0
    0.0000    0.0000    0.0000 C   0  0  0  0  0  0  0  0  0  0  0  0
    0.0000    0.8250    0.0000 N   0  0  0  0  0  0  0  0  0  0  0  0
  1  2  1  0  0  0  0
  2  3  1  0  0  0  0
  3  4  1  0  0  0  0
  4  5  1  0  0  0  0
  5  6  1  0  0  0  0
  1  6  1  0  0  0  0
M  END
> <activity>
-2.4

> <InChiKey>
YNAVUWVOSKDBBP-UHFFFAOYSA-N

$$$$

  Mrv2220 08292413132D          

 13 13  0  0  0  0            999 V2000
   -0.7145    3.7125    0.0000 C   0  0  0  0  0  0  0  0  0  0  0  0
    0.0000    3.3000    0.0000 C   0  0  0  0  0  0  0  0  0  0  0  0
    0.0000    2.4750    0.0000 C   0  0  0  0  0  0  0  0  0  0  0  0
   -0.7145    2.0625    0.0000 O   0  0  0  0  0  0  0  0  0  0  0  0
    0.7145    2.0625    0.0000 N   0  0  0  0  0  0  0  0  0  0  0  0
    0.7145    1.2375    0.0000 C   0  0  0  0  0  0  0  0  0  0  0  0
    1.4289    0.8250    0.0000 C   0  0  0  0  0  0  0  0  0  0  0  0
    1.4289   -0.0000    0.0000 C   0  0  0  0  0  0  0  0  0  0  0  0
    0.7145   -0.4125    0.0000 C   0  0  0  0  0  0  0  0  0  0  0  0
    0.7145   -1.2375    0.0000 Cl  0  0  0  0  0  0  0  0  0  0  0  0
    0.0000    0.0000    0.0000 C   0  0  0  0  0  0  0  0  0  0  0  0
   -0.7145   -0.4125    0.0000 Cl  0  0  0  0  0  0  0  0  0  0  0  0
    0.0000    0.8250    0.0000 C   0  0  0  0  0  0  0  0  0  0  0  0
  1  2  1  0  0  0  0
  2  3  1  0  0  0  0
  3  4  2  0  0  0  0
  3  5  1  0  0  0  0
  5  6  1  0  0  0  0
  6  7  4  0  0  0  0
  7  8  4  0  0  0  0
  8  9  4  0  0  0  0
  9 10  1  0  0  0  0
  9 11  4  0  0  0  0
 11 12  1  0  0  0  0
 11 13  4  0  0  0  0
  6 13  4  0  0  0  0
M  END
> <activity>
58.0

> <InChiKey>
LFULEKSKNZEWOE-UHFFFAOYSA-N

$$$$

  Mrv2220 08292413132D          

 32 33  0  0  0  0            999 V2000
    2.1434   -3.7125    0.0000 O   0  0  0  0  0  0  0  0  0  0  0  0
    2.1434   -2.8875    0.0000 C   0  0  0  0  0  0  0  0  0  0  0  0
    1.4289   -2.4750    0.0000 N   0  0  0  0  0  0  0  0  0  0  0  0
    0.7145   -2.8875    0.0000 C   0  0  0  0  0  0  0  0  0  0  0  0
    0.7145   -3.7125    0.0000 O   0  0  0  0  0  0  0  0  0  0  0  0
    0.0000   -2.4750    0.0000 C   0  0  0  0  0  0  0  0  0  0  0  0
   -0.7145   -2.8875    0.0000 C   0  0  0  0  0  0  0  0  0  0  0  0
   -0.7145   -3.7125    0.0000 F   0  0  0  0  0  0  0  0  0  0  0  0
   -1.4289   -2.4750    0.0000 C   0  0  0  0  0  0  0  0  0  0  0  0
   -1.4289   -1.6500    0.0000 C   0  0  0  0  0  0  0  0  0  0  0  0
   -0.7145   -1.2375    0.0000 C   0  0  0  0  0  0  0  0  0  0  0  0
    0.0000   -1.6500    0.0000 C   0  0  0  0  0  0  0  0  0  0  0  0
    0.7145   -1.2375    0.0000 F   0  0  0  0  0  0  0  0  0  0  0  0
    2.8579   -2.4750    0.0000 N   0  0  0  0  0  0  0  0  0  0  0  0
    3.5724   -2.8875    0.0000 C   0  0  0  0  0  0  0  0  0  0  0  0
    4.2868   -2.4750    0.0000 C   0  0  0  0  0  0  0  0  0  0  0  0
    5.0013   -2.8875    0.0000 C   0  0  0  0  0  0  0  0  0  0  0  0
    5.7158   -2.4750    0.0000 Cl  0  0  0  0  0  0  0  0  0  0  0  0
    5.0013   -3.7125    0.0000 C   0  0  0  0  0  0  0  0  0  0  0  0
    5.7158   -4.1250    0.0000 O   0  0  0  0  0  0  0  0  0  0  0  0
    5.7158   -4.9500    0.0000 C   0  0  0  0  0  0  0  0  0  0  0  0
    4.8908   -4.9500    0.0000 F   0  0  0  0  0  0  0  0  0  0  0  0
    6.5408   -4.9500    0.0000 F   0  0  0  0  0  0  0  0  0  0  0  0
    5.7158   -5.7750    0.0000 C   0  0  0  0  0  0  0  0  0  0  0  0
    5.0013   -6.1875    0.0000 F   0  0  0  0  0  0  0  0  0  0  0  0
    6.4302   -6.1875    0.0000 C   0  0  0  0  0  0  0  0  0  0  0  0
    7.1447   -6.6000    0.0000 F   0  0  0  0  0  0  0  0  0  0  0  0
    6.0177   -6.9020    0.0000 F   0  0  0  0  0  0  0  0  0  0  0  0
    6.8427   -5.4730    0.0000 F   0  0  0  0  0  0  0  0  0  0  0  0
    4.2868   -4.1250    0.0000 C   0  0  0  0  0  0  0  0  0  0  0  0
    3.5724   -3.7125    0.0000 C   0  0  0  0  0  0  0  0  0  0  0  0
    2.8579   -4.1250    0.0000 Cl  0  0  0  0  0  0  0  0  0  0  0  0
  1  2  2  0  0  0  0
  2  3  1  0  0  0  0
  3  4  1  0  0  0  0
  4  5  2  0  0  0  0
  4  6  1  0  0  0  0
  6  7  4  0  0  0  0
  7  8  1  0  0  0  0
  7  9  4  0  0  0  0
  9 10  4  0  0  0  0
 10 11  4  0  0  0  0
 11 12  4  0  0  0  0
  6 12  4  0  0  0  0
 12 13  1  0  0  0  0
  2 14  1  0  0  0  0
 14 15  1  0  0  0  0
 15 16  4  0  0  0  0
 16 17  4  0  0  0  0
 17 18  1  0  0  0  0
 17 19  4  0  0  0  0
 19 20  1  0  0  0  0
 20 21  1  0  0  0  0
 21 22  1  0  0  0  0
 21 23  1  0  0  0  0
 21 24  1  0  0  0  0
 24 25  1  0  0  0  0
 24 26  1  0  0  0  0
 26 27  1  0  0  0  0
 26 28  1  0  0  0  0
 26 29  1  0  0  0  0
 19 30  4  0  0  0  0
 30 31  4  0  0  0  0
 15 31  4  0  0  0  0
 31 32  1  0  0  0  0
M  END
> <activity>
86.4

> <InChiKey>
PWPJGUXAGUPAHP-UHFFFAOYSA-N

$$$$

  Mrv2220 08292413132D          

 14 14  0  0  0  0            999 V2000
   -0.7145    5.3625    0.0000 C   0  0  0  0  0  0  0  0  0  0  0  0
   -0.7145    4.5375    0.0000 C   0  0  0  0  0  0  0  0  0  0  0  0
    0.0000    4.1250    0.0000 C   0  0  0  0  0  0  0  0  0  0  0  0
    0.0000    3.3000    0.0000 C   0  0  0  0  0  0  0  0  0  0  0  0
    0.7145    2.8875    0.0000 N   0  0  0  0  0  0  0  0  0  0  0  0
    0.7145    2.0625    0.0000 S   0  0  0  0  0  0  0  0  0  0  0  0
   -0.1105    2.0625    0.0000 O   0  0  0  0  0  0  0  0  0  0  0  0
    1.5395    2.0625    0.0000 O   0  0  0  0  0  0  0  0  0  0  0  0
    0.7145    1.2375    0.0000 C   0  0  0  0  0  0  0  0  0  0  0  0
    1.4289    0.8250    0.0000 C   0  0  0  0  0  0  0  0  0  0  0  0
    1.4289   -0.0000    0.0000 C   0  0  0  0  0  0  0  0  0  0  0  0
    0.7145   -0.4125    0.0000 C   0  0  0  0  0  0  0  0  0  0  0  0
    0.0000    0.0000    0.0000 C   0  0  0  0  0  0  0  0  0  0  0  0
    0.0000    0.8250    0.0000 C   0  0  0  0  0  0  0  0  0  0  0  0
  1  2  1  0  0  0  0
  2  3  1  0  0  0  0
  3  4  1  0  0  0  0
  4  5  1  0  0  0  0
  5  6  1  0  0  0  0
  6  7  2  0  0  0  0
  6  8  2  0  0  0  0
  6  9  1  0  0  0  0
  9 10  4  0  0  0  0
 10 11  4  0  0  0  0
 11 12  4  0  0  0  0
 12 13  4  0  0  0  0
 13 14  4  0  0  0  0
  9 14  4  0  0  0  0
M  END
> <activity>
17.8

> <InChiKey>
IPRJXAGUEGOFGG-UHFFFAOYSA-N

$$$$

  Mrv2220 08292413132D          

 19 18  0  0  0  0            999 V2000
    5.9961    4.2868    0.0000 C   0  0  0  0  0  0  0  0  0  0  0  0
    6.7105    4.6993    0.0000 C   0  0  0  0  0  0  0  0  0  0  0  0
    7.4250    4.2868    0.0000 C   0  0  0  0  0  0  0  0  0  0  0  0
    8.1395    4.6993    0.0000 C   0  0  0  0  0  0  0  0  0  0  0  0
    8.8539    4.2868    0.0000 C   0  0  0  0  0  0  0  0  0  0  0  0
    9.5684    4.6993    0.0000 C   0  0  0  0  0  0  0  0  0  0  0  0
   10.2829    4.2868    0.0000 C   0  0  0  0  0  0  0  0  0  0  0  0
   10.9974    4.6993    0.0000 C   0  0  0  0  0  0  0  0  0  0  0  0
   11.7118    4.2868    0.0000 C   0  0  0  0  0  0  0  0  0  0  0  0
   12.4263    4.6993    0.0000 C   0  0  0  0  0  0  0  0  0  0  0  0
   13.1408    4.2868    0.0000 C   0  0  0  0  0  0  0  0  0  0  0  0
   13.8552    4.6993    0.0000 C   0  0  0  0  0  0  0  0  0  0  0  0
   13.8552    5.5243    0.0000 O   0  0  0  0  0  0  0  0  0  0  0  0
   14.5697    4.2868    0.0000 N   0  0  0  0  0  0  0  0  0  0  0  0
   14.5697    3.4618    0.0000 C   0  0  0  0  0  0  0  0  0  0  0  0
   15.2842    4.6993    0.0000 C   0  0  0  0  0  0  0  0  0  0  0  0
   15.9987    4.2868    0.0000 C   0  0  0  0  0  0  0  0  0  0  0  0
   16.7131    4.6993    0.0000 O   0  0  0  0  0  0  0  0  0  0  0  0
   15.9987    3.4618    0.0000 O   0  0  0  0  0  0  0  0  0  0  0  0
  1  2  1  0  0  0  0
  2  3  1  0  0  0  0
  3  4  1  0  0  0  0
  4  5  1  0  0  0  0
  5  6  1  0  0  0  0
  6  7  1  0  0  0  0
  7  8  1  0  0  0  0
  8  9  1  0  0  0  0
  9 10  1  0  0  0  0
 10 11  1  0  0  0  0
 11 12  1  0  0  0  0
 12 13  2  0  0  0  0
 12 14  1  0  0  0  0
 14 15  1  0  0  0  0
 14 16  1  0  0  0  0
 16 17  1  0  0  0  0
 17 18  2  0  0  0  0
 17 19  1  0  0  0  0
M  END
> <activity>
85.9

> <InChiKey>
BACYUWVYYTXETD-UHFFFAOYSA-N

$$$$

  Mrv2220 08292413132D          

 31 30  0  0  0  0            999 V2000
    0.1105   -8.6625    0.0000 C   0  0  0  0  0  0  0  0  0  0  0  0
    0.1105   -7.8375    0.0000 C   0  0  0  0  0  0  0  0  0  0  0  0
    0.8250   -7.4250    0.0000 N   0  0  0  0  0  0  0  0  0  0  0  0
    0.8250   -6.6000    0.0000 S   0  0  0  0  0  0  0  0  0  0  0  0
    1.6500   -6.6000    0.0000 O   0  0  0  0  0  0  0  0  0  0  0  0
    0.0000   -6.6000    0.0000 O   0  0  0  0  0  0  0  0  0  0  0  0
    0.8250   -5.7750    0.0000 C   0  0  0  0  0  0  0  0  0  0  0  0
    1.6500   -5.7750    0.0000 F   0  0  0  0  0  0  0  0  0  0  0  0
    0.0000   -5.7750    0.0000 F   0  0  0  0  0  0  0  0  0  0  0  0
    0.8250   -4.9500    0.0000 C   0  0  0  0  0  0  0  0  0  0  0  0
    1.6500   -4.9500    0.0000 F   0  0  0  0  0  0  0  0  0  0  0  0
    0.0000   -4.9500    0.0000 F   0  0  0  0  0  0  0  0  0  0  0  0
    0.8250   -4.1250    0.0000 C   0  0  0  0  0  0  0  0  0  0  0  0
    1.6500   -4.1250    0.0000 F   0  0  0  0  0  0  0  0  0  0  0  0
    0.0000   -4.1250    0.0000 F   0  0  0  0  0  0  0  0  0  0  0  0
    0.8250   -3.3000    0.0000 C   0  0  0  0  0  0  0  0  0  0  0  0
    1.6500   -3.3000    0.0000 F   0  0  0  0  0  0  0  0  0  0  0  0
    0.0000   -3.3000    0.0000 F   0  0  0  0  0  0  0  0  0  0  0  0
    0.8250   -2.4750    0.0000 C   0  0  0  0  0  0  0  0  0  0  0  0
    1.6500   -2.4750    0.0000 F   0  0  0  0  0  0  0  0  0  0  0  0
    0.0000   -2.4750    0.0000 F   0  0  0  0  0  0  0  0  0  0  0  0
    0.8250   -1.6500    0.0000 C   0  0  0  0  0  0  0  0  0  0  0  0
    1.6500   -1.6500    0.0000 F   0  0  0  0  0  0  0  0  0  0  0  0
    0.0000   -1.6500    0.0000 F   0  0  0  0  0  0  0  0  0  0  0  0
    0.8250   -0.8250    0.0000 C   0  0  0  0  0  0  0  0  0  0  0  0
    1.6500   -0.8250    0.0000 F   0  0  0  0  0  0  0  0  0  0  0  0
    0.0000   -0.8250    0.0000 F   0  0  0  0  0  0  0  0  0  0  0  0
    0.8250    0.0000    0.0000 C   0  0  0  0  0  0  0  0  0  0  0  0
    0.8250    0.8250    0.0000 F   0  0  0  0  0  0  0  0  0  0  0  0
    1.6500   -0.0000    0.0000 F   0  0  0  0  0  0  0  0  0  0  0  0
    0.0000    0.0000    0.0000 F   0  0  0  0  0  0  0  0  0  0  0  0
  1  2  1  0  0  0  0
  2  3  1  0  0  0  0
  3  4  1  0  0  0  0
  4  5  2  0  0  0  0
  4  6  2  0  0  0  0
  4  7  1  0  0  0  0
  7  8  1  0  0  0  0
  7  9  1  0  0  0  0
  7 10  1  0  0  0  0
 10 11  1  0  0  0  0
 10 12  1  0  0  0  0
 10 13  1  0  0  0  0
 13 14  1  0  0  0  0
 13 15  1  0  0  0  0
 13 16  1  0  0  0  0
 16 17  1  0  0  0  0
 16 18  1  0  0  0  0
 16 19  1  0  0  0  0
 19 20  1  0  0  0  0
 19 21  1  0  0  0  0
 19 22  1  0  0  0  0
 22 23  1  0  0  0  0
 22 24  1  0  0  0  0
 22 25  1  0  0  0  0
 25 26  1  0  0  0  0
 25 27  1  0  0  0  0
 25 28  1  0  0  0  0
 28 29  1  0  0  0  0
 28 30  1  0  0  0  0
 28 31  1  0  0  0  0
M  END
> <activity>
94.7

> <InChiKey>
CCEKAJIANROZEO-UHFFFAOYSA-N

$$$$

  Mrv2220 08292413132D          

  7  7  0  0  0  0            999 V2000
    0.5678    1.9393    0.0000 C   0  0  0  0  0  0  0  0  0  0  0  0
    0.5678    1.1143    0.0000 N   0  0  0  0  0  0  0  0  0  0  0  0
    1.2352    0.6294    0.0000 C   0  0  0  0  0  0  0  0  0  0  0  0
    0.9803   -0.1553    0.0000 C   0  0  0  0  0  0  0  0  0  0  0  0
    0.1553   -0.1553    0.0000 C   0  0  0  0  0  0  0  0  0  0  0  0
   -0.0997    0.6294    0.0000 C   0  0  0  0  0  0  0  0  0  0  0  0
   -0.8843    0.8843    0.0000 O   0  0  0  0  0  0  0  0  0  0  0  0
  1  2  1  0  0  0  0
  2  3  1  0  0  0  0
  3  4  1  0  0  0  0
  4  5  1  0  0  0  0
  5  6  1  0  0  0  0
  2  6  1  0  0  0  0
  6  7  2  0  0  0  0
M  END
> <activity>
7.9

> <InChiKey>
SECXISVLQFMRJM-UHFFFAOYSA-N

$$$$

  Mrv2220 08292413132D          

  5  4  0  0  0  0            999 V2000
    0.8250    1.4289    0.0000 C   0  0  0  0  0  0  0  0  0  0  0  0
    1.2375    0.7145    0.0000 N   0  0  0  0  0  0  0  0  0  0  0  0
    0.8250    0.0000    0.0000 C   0  0  0  0  0  0  0  0  0  0  0  0
    1.2375   -0.7145    0.0000 C   0  0  0  0  0  0  0  0  0  0  0  0
    0.0000    0.0000    0.0000 O   0  0  0  0  0  0  0  0  0  0  0  0
  1  2  1  0  0  0  0
  2  3  1  0  0  0  0
  3  4  1  0  0  0  0
  3  5  2  0  0  0  0
M  END
> <activity>
20.5

> <InChiKey>
OHLUUHNLEMFGTQ-UHFFFAOYSA-N

$$$$

  Mrv2220 08292413132D          

  7  6  0  0  0  0            999 V2000
    2.0625    0.7145    0.0000 C   0  0  0  0  0  0  0  0  0  0  0  0
    1.2375    0.7145    0.0000 N   0  0  0  0  0  0  0  0  0  0  0  0
    0.8250    1.4289    0.0000 N   0  0  0  0  0  0  0  0  0  0  0  0
    1.2375    2.1434    0.0000 O   0  0  0  0  0  0  0  0  0  0  0  0
    0.8250    0.0000    0.0000 C   0  0  0  0  0  0  0  0  0  0  0  0
    1.2375   -0.7145    0.0000 N   0  0  0  0  0  0  0  0  0  0  0  0
    0.0000    0.0000    0.0000 O   0  0  0  0  0  0  0  0  0  0  0  0
  1  2  1  0  0  0  0
  2  3  1  0  0  0  0
  3  4  2  0  0  0  0
  2  5  1  0  0  0  0
  5  6  1  0  0  0  0
  5  7  2  0  0  0  0
M  END
> <activity>
0.8

> <InChiKey>
ZRKWMRDKSOPRRS-UHFFFAOYSA-N

$$$$

  Mrv2220 08292413132D          

  9  8  0  0  0  0            999 V2000
    1.7605    1.8414    0.0000 C   0  0  0  0  0  0  0  0  0  0  0  0
    2.4750    1.4289    0.0000 C   0  0  0  0  0  0  0  0  0  0  0  0
    3.1895    1.8414    0.0000 C   0  0  0  0  0  0  0  0  0  0  0  0
    3.9039    1.4289    0.0000 N   0  0  0  0  0  0  0  0  0  0  0  0
    4.6184    1.8414    0.0000 C   0  0  0  0  0  0  0  0  0  0  0  0
    5.3329    1.4289    0.0000 C   0  0  0  0  0  0  0  0  0  0  0  0
    6.0474    1.8414    0.0000 C   0  0  0  0  0  0  0  0  0  0  0  0
    3.9039    0.6039    0.0000 N   0  0  0  0  0  0  0  0  0  0  0  0
    4.6184    0.1914    0.0000 O   0  0  0  0  0  0  0  0  0  0  0  0
  1  2  1  0  0  0  0
  2  3  1  0  0  0  0
  3  4  1  0  0  0  0
  4  5  1  0  0  0  0
  5  6  1  0  0  0  0
  6  7  1  0  0  0  0
  4  8  1  0  0  0  0
  8  9  2  0  0  0  0
M  END
> <activity>
8.9

> <InChiKey>
YLKFDHTUAUWZPQ-UHFFFAOYSA-N

$$$$

  Mrv2220 08292413132D          

  7  6  0  0  0  0            999 V2000
    2.4750    0.0000    0.0000 C   0  0  0  0  0  0  0  0  0  0  0  0
    2.0625    0.7145    0.0000 C   0  0  0  0  0  0  0  0  0  0  0  0
    1.2375    0.7145    0.0000 N   0  0  0  0  0  0  0  0  0  0  0  0
    0.8250    1.4289    0.0000 C   0  0  0  0  0  0  0  0  0  0  0  0
    0.0000    1.4289    0.0000 C   0  0  0  0  0  0  0  0  0  0  0  0
    0.8250    0.0000    0.0000 N   0  0  0  0  0  0  0  0  0  0  0  0
    0.0000    0.0000    0.0000 O   0  0  0  0  0  0  0  0  0  0  0  0
  1  2  1  0  0  0  0
  2  3  1  0  0  0  0
  3  4  1  0  0  0  0
  4  5  1  0  0  0  0
  3  6  1  0  0  0  0
  6  7  2  0  0  0  0
M  END
> <activity>
7.3

> <InChiKey>
WBNQDOYYEUMPFS-UHFFFAOYSA-N

$$$$

  Mrv2220 08292413132D          

  5  4  0  0  0  0            999 V2000
    2.0625   -0.7145    0.0000 C   0  0  0  0  0  0  0  0  0  0  0  0
    1.2375   -0.7145    0.0000 N   0  0  0  0  0  0  0  0  0  0  0  0
    0.8250   -1.4289    0.0000 C   0  0  0  0  0  0  0  0  0  0  0  0
    0.8250    0.0000    0.0000 N   0  0  0  0  0  0  0  0  0  0  0  0
    0.0000    0.0000    0.0000 O   0  0  0  0  0  0  0  0  0  0  0  0
  1  2  1  0  0  0  0
  2  3  1  0  0  0  0
  2  4  1  0  0  0  0
  4  5  2  0  0  0  0
M  END
> <activity>
-12.8

> <InChiKey>
UMFJAHHVKNCGLG-UHFFFAOYSA-N

$$$$

  Mrv2220 08292413132D          

 15 16  0  0  0  0            999 V2000
    1.4289    0.8250    0.0000 O   0  0  0  0  0  0  0  0  0  0  0  0
    1.4289    0.0000    0.0000 N   0  0  0  0  0  0  0  0  0  0  0  0
    2.1434   -0.4125    0.0000 N   0  0  0  0  0  0  0  0  0  0  0  0
    2.1434   -1.2375    0.0000 C   0  0  0  0  0  0  0  0  0  0  0  0
    2.8579   -1.6500    0.0000 C   0  0  0  0  0  0  0  0  0  0  0  0
    2.8579   -2.4750    0.0000 C   0  0  0  0  0  0  0  0  0  0  0  0
    2.1434   -2.8875    0.0000 C   0  0  0  0  0  0  0  0  0  0  0  0
    1.4289   -2.4750    0.0000 C   0  0  0  0  0  0  0  0  0  0  0  0
    1.4289   -1.6500    0.0000 C   0  0  0  0  0  0  0  0  0  0  0  0
    2.8579    0.0000    0.0000 C   0  0  0  0  0  0  0  0  0  0  0  0
    2.8579    0.8250    0.0000 C   0  0  0  0  0  0  0  0  0  0  0  0
    3.5724    1.2375    0.0000 C   0  0  0  0  0  0  0  0  0  0  0  0
    4.2868    0.8250    0.0000 C   0  0  0  0  0  0  0  0  0  0  0  0
    4.2868    0.0000    0.0000 C   0  0  0  0  0  0  0  0  0  0  0  0
    3.5724   -0.4125    0.0000 C   0  0  0  0  0  0  0  0  0  0  0  0
  1  2  2  0  0  0  0
  2  3  1  0  0  0  0
  3  4  1  0  0  0  0
  4  5  4  0  0  0  0
  5  6  4  0  0  0  0
  6  7  4  0  0  0  0
  7  8  4  0  0  0  0
  8  9  4  0  0  0  0
  4  9  4  0  0  0  0
  3 10  1  0  0  0  0
 10 11  4  0  0  0  0
 11 12  4  0  0  0  0
 12 13  4  0  0  0  0
 13 14  4  0  0  0  0
 14 15  4  0  0  0  0
 10 15  4  0  0  0  0
M  END
> <activity>
86.7

> <InChiKey>
UBUCNCOMADRQHX-UHFFFAOYSA-N

$$$$

  Mrv2220 08292413132D          

 14 15  0  0  0  0            999 V2000
    2.1434   -0.4125    0.0000 N   0  0  0  0  0  0  0  0  0  0  0  0
    2.1434   -1.2375    0.0000 C   0  0  0  0  0  0  0  0  0  0  0  0
    2.8579   -1.6500    0.0000 C   0  0  0  0  0  0  0  0  0  0  0  0
    2.8579   -2.4750    0.0000 C   0  0  0  0  0  0  0  0  0  0  0  0
    2.1434   -2.8875    0.0000 C   0  0  0  0  0  0  0  0  0  0  0  0
    2.1434   -3.7125    0.0000 N   0  0  0  0  0  0  0  0  0  0  0  0
    1.4289   -4.1250    0.0000 C   0  0  0  0  0  0  0  0  0  0  0  0
    1.4289   -4.9500    0.0000 C   0  0  0  0  0  0  0  0  0  0  0  0
    0.7145   -5.3625    0.0000 C   0  0  0  0  0  0  0  0  0  0  0  0
   -0.0000   -4.9500    0.0000 C   0  0  0  0  0  0  0  0  0  0  0  0
    0.0000   -4.1250    0.0000 C   0  0  0  0  0  0  0  0  0  0  0  0
    0.7145   -3.7125    0.0000 C   0  0  0  0  0  0  0  0  0  0  0  0
    1.4289   -2.4750    0.0000 C   0  0  0  0  0  0  0  0  0  0  0  0
    1.4289   -1.6500    0.0000 C   0  0  0  0  0  0  0  0  0  0  0  0
  1  2  1  0  0  0  0
  2  3  4  0  0  0  0
  3  4  4  0  0  0  0
  4  5  4  0  0  0  0
  5  6  1  0  0  0  0
  6  7  1  0  0  0  0
  7  8  4  0  0  0  0
  8  9  4  0  0  0  0
  9 10  4  0  0  0  0
 10 11  4  0  0  0  0
 11 12  4  0  0  0  0
  7 12  4  0  0  0  0
  5 13  4  0  0  0  0
 13 14  4  0  0  0  0
  2 14  4  0  0  0  0
M  END
> <activity>
90.1

> <InChiKey>
ATGUVEKSASEFFO-UHFFFAOYSA-N

$$$$

  Mrv2220 08292413132D          

  8  7  0  0  0  0            999 V2000
   -0.1914    0.7145    0.0000 C   0  0  0  0  0  0  0  0  0  0  0  0
    0.5230    1.1270    0.0000 C   0  0  0  0  0  0  0  0  0  0  0  0
    1.2375    0.7145    0.0000 N   0  0  0  0  0  0  0  0  0  0  0  0
    1.2375   -0.1105    0.0000 C   0  0  0  0  0  0  0  0  0  0  0  0
    0.5230   -0.5230    0.0000 C   0  0  0  0  0  0  0  0  0  0  0  0
    1.9520    1.1270    0.0000 C   0  0  0  0  0  0  0  0  0  0  0  0
    2.6664    0.7145    0.0000 C   0  0  0  0  0  0  0  0  0  0  0  0
    3.3809    1.1270    0.0000 O   0  0  0  0  0  0  0  0  0  0  0  0
  1  2  1  0  0  0  0
  2  3  1  0  0  0  0
  3  4  1  0  0  0  0
  4  5  1  0  0  0  0
  3  6  1  0  0  0  0
  6  7  1  0  0  0  0
  7  8  1  0  0  0  0
M  END
> <activity>
12.7

> <InChiKey>
BFSVOASYOCHEOV-UHFFFAOYSA-N

$$$$

  Mrv2220 08292413132D          

 14 13  0  0  0  0            999 V2000
    2.9980    2.5559    0.0000 C   0  0  0  0  0  0  0  0  0  0  0  0
    3.7125    2.1434    0.0000 C   0  0  0  0  0  0  0  0  0  0  0  0
    4.4270    2.5559    0.0000 C   0  0  0  0  0  0  0  0  0  0  0  0
    5.1414    2.1434    0.0000 C   0  0  0  0  0  0  0  0  0  0  0  0
    5.8559    2.5559    0.0000 C   0  0  0  0  0  0  0  0  0  0  0  0
    6.5704    2.1434    0.0000 C   0  0  0  0  0  0  0  0  0  0  0  0
    7.2849    2.5559    0.0000 C   0  0  0  0  0  0  0  0  0  0  0  0
    7.9993    2.1434    0.0000 C   0  0  0  0  0  0  0  0  0  0  0  0
    8.7138    2.5559    0.0000 C   0  0  0  0  0  0  0  0  0  0  0  0
    9.4283    2.1434    0.0000 C   0  0  0  0  0  0  0  0  0  0  0  0
   10.1427    2.5559    0.0000 N   0  3  0  0  0  0  0  0  0  0  0  0
   10.8572    2.9684    0.0000 C   0  0  0  0  0  0  0  0  0  0  0  0
   10.5552    1.8414    0.0000 C   0  0  0  0  0  0  0  0  0  0  0  0
    9.7302    3.2704    0.0000 O   0  5  0  0  0  0  0  0  0  0  0  0
  1  2  1  0  0  0  0
  2  3  1  0  0  0  0
  3  4  1  0  0  0  0
  4  5  1  0  0  0  0
  5  6  1  0  0  0  0
  6  7  1  0  0  0  0
  7  8  1  0  0  0  0
  8  9  1  0  0  0  0
  9 10  1  0  0  0  0
 10 11  1  0  0  0  0
 11 12  1  0  0  0  0
 11 13  1  0  0  0  0
 11 14  1  0  0  0  0
M  CHG  2  11   1  14  -1
M  END
> <activity>
9.3

> <InChiKey>
ZRKZFNZPJKEWPC-UHFFFAOYSA-N

$$$$

  Mrv2220 08292413132D          

 12 11  0  0  0  0            999 V2000
    2.2836    2.1434    0.0000 C   0  0  0  0  0  0  0  0  0  0  0  0
    2.9980    2.5559    0.0000 C   0  0  0  0  0  0  0  0  0  0  0  0
    3.7125    2.1434    0.0000 C   0  0  0  0  0  0  0  0  0  0  0  0
    4.4270    2.5559    0.0000 C   0  0  0  0  0  0  0  0  0  0  0  0
    5.1414    2.1434    0.0000 C   0  0  0  0  0  0  0  0  0  0  0  0
    5.8559    2.5559    0.0000 C   0  0  0  0  0  0  0  0  0  0  0  0
    6.5704    2.1434    0.0000 C   0  0  0  0  0  0  0  0  0  0  0  0
    7.2849    2.5559    0.0000 C   0  0  0  0  0  0  0  0  0  0  0  0
    7.2849    3.3809    0.0000 O   0  0  0  0  0  0  0  0  0  0  0  0
    7.9993    2.1434    0.0000 N   0  0  0  0  0  0  0  0  0  0  0  0
    8.7138    2.5559    0.0000 C   0  0  0  0  0  0  0  0  0  0  0  0
    7.9993    1.3184    0.0000 C   0  0  0  0  0  0  0  0  0  0  0  0
  1  2  1  0  0  0  0
  2  3  1  0  0  0  0
  3  4  1  0  0  0  0
  4  5  1  0  0  0  0
  5  6  1  0  0  0  0
  6  7  1  0  0  0  0
  7  8  1  0  0  0  0
  8  9  2  0  0  0  0
  8 10  1  0  0  0  0
 10 11  1  0  0  0  0
 10 12  1  0  0  0  0
M  END
> <activity>
13.0

> <InChiKey>
VHRUBWHAOUIMDW-UHFFFAOYSA-N

$$$$

  Mrv2220 08292413132D          

 22 22  0  0  0  0            999 V2000
    0.7145   -0.4125    0.0000 O   0  0  0  0  0  0  0  0  0  0  0  0
    1.4289   -0.8250    0.0000 C   0  0  0  0  0  0  0  0  0  0  0  0
    1.4289   -1.6500    0.0000 N   0  0  0  0  0  0  0  0  0  0  0  0
    2.1434   -2.0625    0.0000 C   0  0  0  0  0  0  0  0  0  0  0  0
    2.1434   -2.8875    0.0000 N   0  0  0  0  0  0  0  0  0  0  0  0
    2.8579   -3.3000    0.0000 C   0  0  0  0  0  0  0  0  0  0  0  0
    2.8579   -4.1250    0.0000 C   0  0  0  0  0  0  0  0  0  0  0  0
    2.1434   -4.5375    0.0000 N   0  0  0  0  0  0  0  0  0  0  0  0
    2.1434   -5.3625    0.0000 C   0  0  0  0  0  0  0  0  0  0  0  0
    2.8579   -5.7750    0.0000 N   0  0  0  0  0  0  0  0  0  0  0  0
    2.8579   -6.6000    0.0000 C   0  0  0  0  0  0  0  0  0  0  0  0
    3.5724   -7.0125    0.0000 O   0  0  0  0  0  0  0  0  0  0  0  0
    1.4289   -5.7750    0.0000 C   0  0  0  0  0  0  0  0  0  0  0  0
    0.7145   -6.1875    0.0000 Cl  0  0  0  0  0  0  0  0  0  0  0  0
    1.8414   -6.4895    0.0000 Cl  0  0  0  0  0  0  0  0  0  0  0  0
    1.0164   -5.0605    0.0000 Cl  0  0  0  0  0  0  0  0  0  0  0  0
    1.4289   -4.1250    0.0000 C   0  0  0  0  0  0  0  0  0  0  0  0
    1.4289   -3.3000    0.0000 C   0  0  0  0  0  0  0  0  0  0  0  0
    2.8579   -1.6500    0.0000 C   0  0  0  0  0  0  0  0  0  0  0  0
    3.2704   -2.3645    0.0000 Cl  0  0  0  0  0  0  0  0  0  0  0  0
    2.4454   -0.9355    0.0000 Cl  0  0  0  0  0  0  0  0  0  0  0  0
    3.5724   -1.2375    0.0000 Cl  0  0  0  0  0  0  0  0  0  0  0  0
  1  2  2  0  0  0  0
  2  3  1  0  0  0  0
  3  4  1  0  0  0  0
  4  5  1  0  0  0  0
  5  6  1  0  0  0  0
  6  7  1  0  0  0  0
  7  8  1  0  0  0  0
  8  9  1  0  0  0  0
  9 10  1  0  0  0  0
 10 11  1  0  0  0  0
 11 12  2  0  0  0  0
  9 13  1  0  0  0  0
 13 14  1  0  0  0  0
 13 15  1  0  0  0  0
 13 16  1  0  0  0  0
  8 17  1  0  0  0  0
 17 18  1  0  0  0  0
  5 18  1  0  0  0  0
  4 19  1  0  0  0  0
 19 20  1  0  0  0  0
 19 21  1  0  0  0  0
 19 22  1  0  0  0  0
M  END
> <activity>
-4.8

> <InChiKey>
RROQIUMZODEXOR-UHFFFAOYSA-N

$$$$

  Mrv2220 08292413132D          

 12 11  0  0  0  0            999 V2000
    4.2355    3.2704    0.0000 C   0  0  0  0  0  0  0  0  0  0  0  0
    4.9500    2.8579    0.0000 C   0  0  0  0  0  0  0  0  0  0  0  0
    5.6645    3.2704    0.0000 C   0  0  0  0  0  0  0  0  0  0  0  0
    6.3789    2.8579    0.0000 C   0  0  0  0  0  0  0  0  0  0  0  0
    7.0934    3.2704    0.0000 N   0  0  0  0  0  0  0  0  0  0  0  0
    7.8079    2.8579    0.0000 C   0  0  0  0  0  0  0  0  0  0  0  0
    7.8079    2.0329    0.0000 S   0  0  0  0  0  0  0  0  0  0  0  0
    8.5224    3.2704    0.0000 N   0  0  0  0  0  0  0  0  0  0  0  0
    9.2368    2.8579    0.0000 C   0  0  0  0  0  0  0  0  0  0  0  0
    9.9513    3.2704    0.0000 C   0  0  0  0  0  0  0  0  0  0  0  0
   10.6658    2.8579    0.0000 C   0  0  0  0  0  0  0  0  0  0  0  0
   11.3802    3.2704    0.0000 C   0  0  0  0  0  0  0  0  0  0  0  0
  1  2  1  0  0  0  0
  2  3  1  0  0  0  0
  3  4  1  0  0  0  0
  4  5  1  0  0  0  0
  5  6  1  0  0  0  0
  6  7  2  0  0  0  0
  6  8  1  0  0  0  0
  8  9  1  0  0  0  0
  9 10  1  0  0  0  0
 10 11  1  0  0  0  0
 11 12  1  0  0  0  0
M  END
> <activity>
20.0

> <InChiKey>
KFFQABQEJATQAT-UHFFFAOYSA-N

$$$$

  Mrv2220 08292413132D          

  8  7  0  0  0  0            999 V2000
    1.7605    1.8414    0.0000 C   0  0  0  0  0  0  0  0  0  0  0  0
    2.4750    1.4289    0.0000 C   0  0  0  0  0  0  0  0  0  0  0  0
    3.1895    1.8414    0.0000 N   0  0  0  0  0  0  0  0  0  0  0  0
    3.9039    1.4289    0.0000 C   0  0  0  0  0  0  0  0  0  0  0  0
    3.9039    0.6039    0.0000 S   0  0  0  0  0  0  0  0  0  0  0  0
    4.6184    1.8414    0.0000 N   0  0  0  0  0  0  0  0  0  0  0  0
    5.3329    1.4289    0.0000 C   0  0  0  0  0  0  0  0  0  0  0  0
    6.0474    1.8414    0.0000 C   0  0  0  0  0  0  0  0  0  0  0  0
  1  2  1  0  0  0  0
  2  3  1  0  0  0  0
  3  4  1  0  0  0  0
  4  5  2  0  0  0  0
  4  6  1  0  0  0  0
  6  7  1  0  0  0  0
  7  8  1  0  0  0  0
M  END
> <activity>
5.4

> <InChiKey>
FLVIGYVXZHLUHP-UHFFFAOYSA-N

$$$$

  Mrv2220 08292413132D          

 11 10  0  0  0  0            999 V2000
    2.9980    2.5559    0.0000 C   0  0  0  0  0  0  0  0  0  0  0  0
    3.7125    2.1434    0.0000 C   0  0  0  0  0  0  0  0  0  0  0  0
    4.4270    2.5559    0.0000 C   0  0  0  0  0  0  0  0  0  0  0  0
    4.4270    3.3809    0.0000 O   0  0  0  0  0  0  0  0  0  0  0  0
    5.1414    2.1434    0.0000 N   0  0  0  0  0  0  0  0  0  0  0  0
    5.8559    2.5559    0.0000 C   0  0  0  0  0  0  0  0  0  0  0  0
    6.5704    2.1434    0.0000 N   0  0  0  0  0  0  0  0  0  0  0  0
    7.2849    2.5559    0.0000 C   0  0  0  0  0  0  0  0  0  0  0  0
    7.2849    3.3809    0.0000 O   0  0  0  0  0  0  0  0  0  0  0  0
    7.9993    2.1434    0.0000 C   0  0  0  0  0  0  0  0  0  0  0  0
    8.7138    2.5559    0.0000 C   0  0  0  0  0  0  0  0  0  0  0  0
  1  2  2  0  0  0  0
  2  3  1  0  0  0  0
  3  4  2  0  0  0  0
  3  5  1  0  0  0  0
  5  6  1  0  0  0  0
  6  7  1  0  0  0  0
  7  8  1  0  0  0  0
  8  9  2  0  0  0  0
  8 10  1  0  0  0  0
 10 11  2  0  0  0  0
M  END
> <activity>
50.3

> <InChiKey>
ZIUHHBKFKCYYJD-UHFFFAOYSA-N

$$$$

  Mrv2220 08292413132D          

 10 11  0  0  0  0            999 V2000
    0.7145   -1.2375    0.0000 C   0  0  0  0  0  0  0  0  0  0  0  0
    0.7145   -0.4125    0.0000 C   0  0  0  0  0  0  0  0  0  0  0  0
    1.4289    0.0000    0.0000 C   0  0  0  0  0  0  0  0  0  0  0  0
    2.1434   -0.4125    0.0000 C   0  0  0  0  0  0  0  0  0  0  0  0
    2.8579    0.0000    0.0000 C   0  0  0  0  0  0  0  0  0  0  0  0
    3.5724   -0.4125    0.0000 C   0  0  0  0  0  0  0  0  0  0  0  0
    3.5724   -1.2375    0.0000 C   0  0  0  0  0  0  0  0  0  0  0  0
    2.8579   -1.6500    0.0000 C   0  0  0  0  0  0  0  0  0  0  0  0
    2.1434   -1.2375    0.0000 C   0  0  0  0  0  0  0  0  0  0  0  0
    1.4289   -1.6500    0.0000 C   0  0  0  0  0  0  0  0  0  0  0  0
  1  2  4  0  0  0  0
  2  3  4  0  0  0  0
  3  4  4  0  0  0  0
  4  5  4  0  0  0  0
  5  6  4  0  0  0  0
  6  7  4  0  0  0  0
  7  8  4  0  0  0  0
  8  9  4  0  0  0  0
  4  9  4  0  0  0  0
  9 10  4  0  0  0  0
  1 10  4  0  0  0  0
M  END
> <activity>
34.8

> <InChiKey>
UFWIBTONFRDIAS-UHFFFAOYSA-N

$$$$

  Mrv2220 08292413132D          

 43 47  0  0  0  0            999 V2000
    0.4161   -5.9016    0.0000 C   0  0  0  0  0  0  0  0  0  0  0  0
   -0.1360   -5.2885    0.0000 O   0  0  0  0  0  0  0  0  0  0  0  0
    0.1190   -4.5039    0.0000 C   0  0  0  0  0  0  0  0  0  0  0  0
   -0.4331   -3.8908    0.0000 C   0  0  0  0  0  0  0  0  0  0  0  0
   -0.1781   -3.1062    0.0000 C   0  0  0  0  0  0  0  0  0  0  0  0
    0.6288   -2.9346    0.0000 C   0  0  0  0  0  0  0  0  0  0  0  0
    0.8838   -2.1500    0.0000 S   0  0  0  0  0  0  0  0  0  0  0  0
    1.6684   -2.4049    0.0000 O   0  0  0  0  0  0  0  0  0  0  0  0
    0.0992   -1.8951    0.0000 O   0  0  0  0  0  0  0  0  0  0  0  0
    1.1387   -1.3654    0.0000 N   0  0  0  0  0  0  0  0  0  0  0  0
    0.6538   -0.6979    0.0000 C   0  0  0  0  0  0  0  0  0  0  0  0
   -0.1712   -0.6979    0.0000 O   0  0  0  0  0  0  0  0  0  0  0  0
    1.1387   -0.0305    0.0000 C   0  0  0  0  0  0  0  0  0  0  0  0
    0.4243    0.3820    0.0000 C   0  0  0  0  0  0  0  0  0  0  0  0
   -0.1278   -0.2311    0.0000 C   0  0  0  0  0  0  0  0  0  0  0  0
   -0.9348   -0.0596    0.0000 C   0  0  0  0  0  0  0  0  0  0  0  0
   -1.1897    0.7251    0.0000 C   0  0  0  0  0  0  0  0  0  0  0  0
   -0.6377    1.3381    0.0000 C   0  0  0  0  0  0  0  0  0  0  0  0
    0.1693    1.1666    0.0000 C   0  0  0  0  0  0  0  0  0  0  0  0
    0.7213    1.7797    0.0000 O   0  0  0  0  0  0  0  0  0  0  0  0
    0.4664    2.5643    0.0000 C   0  0  0  0  0  0  0  0  0  0  0  0
    1.4743    0.7232    0.0000 N   0  0  0  0  0  0  0  0  0  0  0  0
    1.0618    1.4376    0.0000 C   0  0  0  0  0  0  0  0  0  0  0  0
    1.6138    2.0507    0.0000 C   0  0  0  0  0  0  0  0  0  0  0  0
    1.4423    2.8577    0.0000 O   0  0  0  0  0  0  0  0  0  0  0  0
    2.3675    1.7152    0.0000 C   0  0  0  0  0  0  0  0  0  0  0  0
    2.2813    0.8947    0.0000 C   0  0  0  0  0  0  0  0  0  0  0  0
    2.8943    0.3427    0.0000 C   0  0  0  0  0  0  0  0  0  0  0  0
    3.6088   -0.0698    0.0000 O   0  0  0  0  0  0  0  0  0  0  0  0
    3.6790    0.5976    0.0000 N   0  0  0  0  0  0  0  0  0  0  0  0
    3.8505    1.4046    0.0000 C   0  0  0  0  0  0  0  0  0  0  0  0
    4.2921    0.0456    0.0000 C   0  0  0  0  0  0  0  0  0  0  0  0
    1.9233   -0.2854    0.0000 C   0  0  0  0  0  0  0  0  0  0  0  0
    2.6378    0.1271    0.0000 C   0  0  0  0  0  0  0  0  0  0  0  0
    3.3523   -0.2854    0.0000 C   0  0  0  0  0  0  0  0  0  0  0  0
    4.1060   -0.6210    0.0000 Cl  0  0  0  0  0  0  0  0  0  0  0  0
    3.3523   -1.1104    0.0000 C   0  0  0  0  0  0  0  0  0  0  0  0
    2.6378   -1.5229    0.0000 C   0  0  0  0  0  0  0  0  0  0  0  0
    1.9233   -1.1104    0.0000 C   0  0  0  0  0  0  0  0  0  0  0  0
    1.1809   -3.5477    0.0000 C   0  0  0  0  0  0  0  0  0  0  0  0
    1.9878   -3.3762    0.0000 O   0  0  0  0  0  0  0  0  0  0  0  0
    2.5399   -3.9893    0.0000 C   0  0  0  0  0  0  0  0  0  0  0  0
    0.9259   -4.3323    0.0000 C   0  0  0  0  0  0  0  0  0  0  0  0
  1  2  1  0  0  0  0
  2  3  1  0  0  0  0
  3  4  4  0  0  0  0
  4  5  4  0  0  0  0
  5  6  4  0  0  0  0
  6  7  1  0  0  0  0
  7  8  2  0  0  0  0
  7  9  2  0  0  0  0
  7 10  1  0  0  0  0
 10 11  1  0  0  0  0
 11 12  2  0  0  0  0
 11 13  1  0  0  0  0
 13 14  1  0  0  0  0
 14 15  4  0  0  0  0
 15 16  4  0  0  0  0
 16 17  4  0  0  0  0
 17 18  4  0  0  0  0
 18 19  4  0  0  0  0
 14 19  4  0  0  0  0
 19 20  1  0  0  0  0
 20 21  1  0  0  0  0
 13 22  1  0  0  0  0
 22 23  1  0  0  0  0
 23 24  1  0  0  0  0
 24 25  1  0  0  0  0
 24 26  1  0  0  0  0
 26 27  1  0  0  0  0
 22 27  1  0  0  0  0
 27 28  1  0  0  0  0
 28 29  2  0  0  0  0
 28 30  1  0  0  0  0
 30 31  1  0  0  0  0
 30 32  1  0  0  0  0
 13 33  1  0  0  0  0
 33 34  4  0  0  0  0
 34 35  4  0  0  0  0
 35 36  1  0  0  0  0
 35 37  4  0  0  0  0
 37 38  4  0  0  0  0
 38 39  4  0  0  0  0
 33 39  4  0  0  0  0
 10 39  1  0  0  0  0
  6 40  4  0  0  0  0
 40 41  1  0  0  0  0
 41 42  1  0  0  0  0
 40 43  4  0  0  0  0
  3 43  4  0  0  0  0
M  END
> <activity>
21.8

> <InChiKey>
NJXZWIIMWNEOGJ-UHFFFAOYSA-N

$$$$

  Mrv2220 08292413132D          

 12 11  0  0  0  0            999 V2000
    0.5230   -1.9520    0.0000 C   0  0  0  0  0  0  0  0  0  0  0  0
    0.5230   -1.1270    0.0000 C   0  0  0  0  0  0  0  0  0  0  0  0
    1.2375   -0.7145    0.0000 C   0  0  0  0  0  0  0  0  0  0  0  0
    1.6500   -1.4289    0.0000 C   0  0  0  0  0  0  0  0  0  0  0  0
    1.9520   -0.3020    0.0000 C   0  0  0  0  0  0  0  0  0  0  0  0
    1.9520    0.5230    0.0000 C   0  0  0  0  0  0  0  0  0  0  0  0
    2.6664    0.9355    0.0000 C   0  0  0  0  0  0  0  0  0  0  0  0
    2.6664    1.7605    0.0000 C   0  0  0  0  0  0  0  0  0  0  0  0
    3.3809    0.5230    0.0000 C   0  0  0  0  0  0  0  0  0  0  0  0
    0.8250    0.0000    0.0000 C   0  0  0  0  0  0  0  0  0  0  0  0
    1.2375    0.7145    0.0000 O   0  0  0  0  0  0  0  0  0  0  0  0
    0.0000    0.0000    0.0000 O   0  0  0  0  0  0  0  0  0  0  0  0
  1  2  1  0  0  0  0
  2  3  1  0  0  0  0
  3  4  1  0  0  0  0
  3  5  1  0  0  0  0
  5  6  1  0  0  0  0
  6  7  1  0  0  0  0
  7  8  1  0  0  0  0
  7  9  1  0  0  0  0
  3 10  1  0  0  0  0
 10 11  2  0  0  0  0
 10 12  1  0  0  0  0
M  END
> <activity>
38.0

> <InChiKey>
PKJSRUTWBDIWAR-UHFFFAOYSA-N

$$$$

  Mrv2220 08292413132D          

 16 15  0  0  0  0            999 V2000
    6.1875    3.5724    0.0000 C   0  0  0  0  0  0  0  0  0  0  0  0
    5.3625    3.5724    0.0000 C   0  0  0  0  0  0  0  0  0  0  0  0
    4.9500    2.8579    0.0000 C   0  0  0  0  0  0  0  0  0  0  0  0
    4.2355    3.2704    0.0000 C   0  0  0  0  0  0  0  0  0  0  0  0
    5.6645    2.4454    0.0000 O   0  0  0  0  0  0  0  0  0  0  0  0
    4.5375    2.1434    0.0000 C   0  0  0  0  0  0  0  0  0  0  0  0
    3.7125    2.1434    0.0000 C   0  0  0  0  0  0  0  0  0  0  0  0
    3.3000    1.4289    0.0000 C   0  0  0  0  0  0  0  0  0  0  0  0
    2.4750    1.4289    0.0000 C   0  0  0  0  0  0  0  0  0  0  0  0
    2.0625    2.1434    0.0000 C   0  0  0  0  0  0  0  0  0  0  0  0
    2.0625    0.7145    0.0000 C   0  0  0  0  0  0  0  0  0  0  0  0
    1.2375    0.7145    0.0000 C   0  0  0  0  0  0  0  0  0  0  0  0
    0.8250    0.0000    0.0000 C   0  0  0  0  0  0  0  0  0  0  0  0
    0.0000    0.0000    0.0000 C   0  0  0  0  0  0  0  0  0  0  0  0
   -0.4125   -0.7145    0.0000 C   0  0  0  0  0  0  0  0  0  0  0  0
   -0.4125    0.7145    0.0000 C   0  0  0  0  0  0  0  0  0  0  0  0
  1  2  2  0  0  0  0
  2  3  1  0  0  0  0
  3  4  1  0  0  0  0
  3  5  1  0  0  0  0
  3  6  1  0  0  0  0
  6  7  1  0  0  0  0
  8  7  1  4  0  0  0
  8  9  2  0  0  0  0
  9 10  1  0  0  0  0
  9 11  1  0  0  0  0
 11 12  1  0  0  0  0
 12 13  1  0  0  0  0
 13 14  2  0  0  0  0
 14 15  1  0  0  0  0
 14 16  1  0  0  0  0
M  END
> <activity>
75.4

> <InChiKey>
FQTLCLSUCSAZDY-UHFFFAOYSA-N

$$$$

  Mrv2220 08292413132D          

 28 29  0  0  0  0            999 V2000
   -0.7145   -2.0625    0.0000 C   0  0  0  0  0  0  0  0  0  0  0  0
   -1.4289   -2.4750    0.0000 O   0  0  0  0  0  0  0  0  0  0  0  0
   -1.4289   -3.3000    0.0000 C   0  0  0  0  0  0  0  0  0  0  0  0
   -0.7145   -3.7125    0.0000 C   0  0  0  0  0  0  0  0  0  0  0  0
   -0.7145   -4.5375    0.0000 C   0  0  0  0  0  0  0  0  0  0  0  0
    0.0000   -4.9500    0.0000 O   0  0  0  0  0  0  0  0  0  0  0  0
    0.0000   -5.7750    0.0000 C   0  0  0  0  0  0  0  0  0  0  0  0
   -1.4289   -4.9500    0.0000 N   0  0  0  0  0  0  0  0  0  0  0  0
   -2.1434   -4.5375    0.0000 C   0  0  0  0  0  0  0  0  0  0  0  0
   -2.8579   -4.9500    0.0000 N   0  0  0  0  0  0  0  0  0  0  0  0
   -2.8579   -5.7750    0.0000 C   0  0  0  0  0  0  0  0  0  0  0  0
   -2.1434   -6.1875    0.0000 O   0  0  0  0  0  0  0  0  0  0  0  0
   -3.5724   -6.1875    0.0000 N   0  0  0  0  0  0  0  0  0  0  0  0
   -3.5724   -7.0125    0.0000 S   0  0  0  0  0  0  0  0  0  0  0  0
   -4.3974   -7.0125    0.0000 O   0  0  0  0  0  0  0  0  0  0  0  0
   -2.7474   -7.0125    0.0000 O   0  0  0  0  0  0  0  0  0  0  0  0
   -3.5724   -7.8375    0.0000 C   0  0  0  0  0  0  0  0  0  0  0  0
   -2.8579   -8.2500    0.0000 N   0  0  0  0  0  0  0  0  0  0  0  0
   -2.8579   -9.0750    0.0000 C   0  0  0  0  0  0  0  0  0  0  0  0
   -3.5724   -9.4875    0.0000 C   0  0  0  0  0  0  0  0  0  0  0  0
   -4.2868   -9.0750    0.0000 C   0  0  0  0  0  0  0  0  0  0  0  0
   -4.2868   -8.2500    0.0000 C   0  0  0  0  0  0  0  0  0  0  0  0
   -5.0013   -7.8375    0.0000 C   0  0  0  0  0  0  0  0  0  0  0  0
   -5.0013   -7.0125    0.0000 O   0  0  0  0  0  0  0  0  0  0  0  0
   -5.7158   -8.2500    0.0000 N   0  0  0  0  0  0  0  0  0  0  0  0
   -5.7158   -9.0750    0.0000 C   0  0  0  0  0  0  0  0  0  0  0  0
   -6.4302   -7.8375    0.0000 C   0  0  0  0  0  0  0  0  0  0  0  0
   -2.1434   -3.7125    0.0000 N   0  0  0  0  0  0  0  0  0  0  0  0
  1  2  1  0  0  0  0
  2  3  1  0  0  0  0
  3  4  4  0  0  0  0
  4  5  4  0  0  0  0
  5  6  1  0  0  0  0
  6  7  1  0  0  0  0
  5  8  4  0  0  0  0
  8  9  4  0  0  0  0
  9 10  1  0  0  0  0
 10 11  1  0  0  0  0
 11 12  2  0  0  0  0
 11 13  1  0  0  0  0
 13 14  1  0  0  0  0
 14 15  2  0  0  0  0
 14 16  2  0  0  0  0
 14 17  1  0  0  0  0
 17 18  4  0  0  0  0
 18 19  4  0  0  0  0
 19 20  4  0  0  0  0
 20 21  4  0  0  0  0
 21 22  4  0  0  0  0
 17 22  4  0  0  0  0
 22 23  1  0  0  0  0
 23 24  2  0  0  0  0
 23 25  1  0  0  0  0
 25 26  1  0  0  0  0
 25 27  1  0  0  0  0
  9 28  4  0  0  0  0
  3 28  4  0  0  0  0
M  END
> <activity>
17.7

> <InChiKey>
RTCOGUMHFFWOJV-UHFFFAOYSA-N

$$$$

  Mrv2220 08292413132D          

  9  9  0  0  0  0            999 V2000
    0.0000    2.4750    0.0000 O   0  0  0  0  0  0  0  0  0  0  0  0
    0.7145    2.0625    0.0000 C   0  0  0  0  0  0  0  0  0  0  0  0
    1.4289    2.4750    0.0000 O   0  0  0  0  0  0  0  0  0  0  0  0
    0.7145    1.2375    0.0000 C   0  0  0  0  0  0  0  0  0  0  0  0
    1.4289    0.8250    0.0000 C   0  0  0  0  0  0  0  0  0  0  0  0
    1.4289   -0.0000    0.0000 C   0  0  0  0  0  0  0  0  0  0  0  0
    0.7145   -0.4125    0.0000 C   0  0  0  0  0  0  0  0  0  0  0  0
    0.0000    0.0000    0.0000 N   0  0  0  0  0  0  0  0  0  0  0  0
    0.0000    0.8250    0.0000 C   0  0  0  0  0  0  0  0  0  0  0  0
  1  2  2  0  0  0  0
  2  3  1  0  0  0  0
  2  4  1  0  0  0  0
  4  5  4  0  0  0  0
  5  6  4  0  0  0  0
  6  7  4  0  0  0  0
  7  8  4  0  0  0  0
  8  9  4  0  0  0  0
  4  9  4  0  0  0  0
M  END
> <activity>
9.9

> <InChiKey>
PVNIIMVLHYAWGP-UHFFFAOYSA-N

$$$$

  Mrv2220 08292413132D          

 11 11  0  0  0  0            999 V2000
    0.7145    2.0625    0.0000 Cl  0  0  0  0  0  0  0  0  0  0  0  0
    0.7145    1.2375    0.0000 C   0  0  0  0  0  0  0  0  0  0  0  0
    1.4289    0.8250    0.0000 C   0  0  0  0  0  0  0  0  0  0  0  0
    1.4289   -0.0000    0.0000 C   0  0  0  0  0  0  0  0  0  0  0  0
    0.7145   -0.4125    0.0000 C   0  0  0  0  0  0  0  0  0  0  0  0
    0.0000    0.0000    0.0000 C   0  0  0  0  0  0  0  0  0  0  0  0
   -0.7145   -0.4125    0.0000 C   0  0  0  0  0  0  0  0  0  0  0  0
   -1.4289   -0.8250    0.0000 Cl  0  0  0  0  0  0  0  0  0  0  0  0
   -1.1270    0.3020    0.0000 Cl  0  0  0  0  0  0  0  0  0  0  0  0
   -0.3020   -1.1270    0.0000 Cl  0  0  0  0  0  0  0  0  0  0  0  0
    0.0000    0.8250    0.0000 N   0  0  0  0  0  0  0  0  0  0  0  0
  1  2  1  0  0  0  0
  2  3  4  0  0  0  0
  3  4  4  0  0  0  0
  4  5  4  0  0  0  0
  5  6  4  0  0  0  0
  6  7  1  0  0  0  0
  7  8  1  0  0  0  0
  7  9  1  0  0  0  0
  7 10  1  0  0  0  0
  6 11  4  0  0  0  0
  2 11  4  0  0  0  0
M  END
> <activity>
76.0

> <InChiKey>
DCUJJWWUNKIJPH-UHFFFAOYSA-N

$$$$

  Mrv2220 08292413132D          

 13 12  0  0  0  0            999 V2000
   -0.7145   -3.4914    0.0000 O   0  0  0  0  0  0  0  0  0  0  0  0
    0.0000   -3.9039    0.0000 C   0  0  0  0  0  0  0  0  0  0  0  0
   -0.0000   -4.7289    0.0000 O   0  0  0  0  0  0  0  0  0  0  0  0
    0.7145   -3.4914    0.0000 C   0  0  0  0  0  0  0  0  0  0  0  0
    0.7145   -2.6664    0.0000 N   0  0  0  0  0  0  0  0  0  0  0  0
    0.0000   -2.2539    0.0000 C   0  0  0  0  0  0  0  0  0  0  0  0
    0.0000   -1.4289    0.0000 C   0  0  0  0  0  0  0  0  0  0  0  0
    0.7145   -1.0164    0.0000 O   0  0  0  0  0  0  0  0  0  0  0  0
   -0.7145   -1.0164    0.0000 O   0  0  0  0  0  0  0  0  0  0  0  0
    1.4289   -2.2539    0.0000 C   0  0  0  0  0  0  0  0  0  0  0  0
    1.4289   -1.4289    0.0000 C   0  0  0  0  0  0  0  0  0  0  0  0
    2.1434   -1.0164    0.0000 O   0  0  0  0  0  0  0  0  0  0  0  0
    1.0934   -0.6753    0.0000 O   0  0  0  0  0  0  0  0  0  0  0  0
  1  2  2  0  0  0  0
  2  3  1  0  0  0  0
  2  4  1  0  0  0  0
  4  5  1  0  0  0  0
  5  6  1  0  0  0  0
  6  7  1  0  0  0  0
  7  8  2  0  0  0  0
  7  9  1  0  0  0  0
  5 10  1  0  0  0  0
 10 11  1  0  0  0  0
 11 12  2  0  0  0  0
 11 13  1  0  0  0  0
M  END
> <activity>
2.5

> <InChiKey>
MGFYIUFZLHCRTH-UHFFFAOYSA-N

$$$$

  Mrv2220 08292413132D          

  9  9  0  0  0  0            999 V2000
    0.0000    2.4750    0.0000 O   0  0  0  0  0  0  0  0  0  0  0  0
    0.7145    2.0625    0.0000 N   0  3  0  0  0  0  0  0  0  0  0  0
    1.4289    2.4750    0.0000 O   0  5  0  0  0  0  0  0  0  0  0  0
    0.7145    1.2375    0.0000 C   0  0  0  0  0  0  0  0  0  0  0  0
    1.4289    0.8250    0.0000 C   0  0  0  0  0  0  0  0  0  0  0  0
    1.4289   -0.0000    0.0000 C   0  0  0  0  0  0  0  0  0  0  0  0
    0.7145   -0.4125    0.0000 C   0  0  0  0  0  0  0  0  0  0  0  0
    0.0000    0.0000    0.0000 C   0  0  0  0  0  0  0  0  0  0  0  0
    0.0000    0.8250    0.0000 C   0  0  0  0  0  0  0  0  0  0  0  0
  1  2  2  0  0  0  0
  2  3  1  0  0  0  0
  2  4  1  0  0  0  0
  4  5  4  0  0  0  0
  5  6  4  0  0  0  0
  6  7  4  0  0  0  0
  7  8  4  0  0  0  0
  8  9  4  0  0  0  0
  4  9  4  0  0  0  0
M  CHG  2   2   1   3  -1
M  END
> <activity>
56.1

> <InChiKey>
LQNUZADURLCDLV-UHFFFAOYSA-N

$$$$

  Mrv2220 08292413132D          

 18 19  0  0  0  0            999 V2000
    1.4289    0.0000    0.0000 O   0  0  0  0  0  0  0  0  0  0  0  0
    2.1434   -0.4125    0.0000 N   0  3  0  0  0  0  0  0  0  0  0  0
    2.8579    0.0000    0.0000 O   0  5  0  0  0  0  0  0  0  0  0  0
    2.1434   -1.2375    0.0000 C   0  0  0  0  0  0  0  0  0  0  0  0
    2.8579   -1.6500    0.0000 C   0  0  0  0  0  0  0  0  0  0  0  0
    2.8579   -2.4750    0.0000 C   0  0  0  0  0  0  0  0  0  0  0  0
    2.1434   -2.8875    0.0000 C   0  0  0  0  0  0  0  0  0  0  0  0
    2.1434   -3.7125    0.0000 O   0  0  0  0  0  0  0  0  0  0  0  0
    1.4289   -4.1250    0.0000 C   0  0  0  0  0  0  0  0  0  0  0  0
    1.4289   -4.9500    0.0000 C   0  0  0  0  0  0  0  0  0  0  0  0
    0.7145   -5.3625    0.0000 C   0  0  0  0  0  0  0  0  0  0  0  0
   -0.0000   -4.9500    0.0000 C   0  0  0  0  0  0  0  0  0  0  0  0
   -0.7145   -5.3625    0.0000 Cl  0  0  0  0  0  0  0  0  0  0  0  0
    0.0000   -4.1250    0.0000 C   0  0  0  0  0  0  0  0  0  0  0  0
    0.7145   -3.7125    0.0000 C   0  0  0  0  0  0  0  0  0  0  0  0
    0.7145   -2.8875    0.0000 Cl  0  0  0  0  0  0  0  0  0  0  0  0
    1.4289   -2.4750    0.0000 C   0  0  0  0  0  0  0  0  0  0  0  0
    1.4289   -1.6500    0.0000 C   0  0  0  0  0  0  0  0  0  0  0  0
  1  2  2  0  0  0  0
  2  3  1  0  0  0  0
  2  4  1  0  0  0  0
  4  5  4  0  0  0  0
  5  6  4  0  0  0  0
  6  7  4  0  0  0  0
  7  8  1  0  0  0  0
  8  9  1  0  0  0  0
  9 10  4  0  0  0  0
 10 11  4  0  0  0  0
 11 12  4  0  0  0  0
 12 13  1  0  0  0  0
 12 14  4  0  0  0  0
 14 15  4  0  0  0  0
  9 15  4  0  0  0  0
 15 16  1  0  0  0  0
  7 17  4  0  0  0  0
 17 18  4  0  0  0  0
  4 18  4  0  0  0  0
M  CHG  2   2   1   3  -1
M  END
> <activity>
68.4

> <InChiKey>
XITQUSLLOSKDTB-UHFFFAOYSA-N

$$$$

  Mrv2220 08292413132D          

  9  8  0  0  0  0            999 V2000
    2.9980    2.5559    0.0000 C   0  0  0  0  0  0  0  0  0  0  0  0
    3.7125    2.1434    0.0000 C   0  0  0  0  0  0  0  0  0  0  0  0
    4.4270    2.5559    0.0000 C   0  0  0  0  0  0  0  0  0  0  0  0
    5.1414    2.1434    0.0000 C   0  0  0  0  0  0  0  0  0  0  0  0
    5.8559    2.5559    0.0000 C   0  0  0  0  0  0  0  0  0  0  0  0
    6.5704    2.1434    0.0000 C   0  0  0  0  0  0  0  0  0  0  0  0
    7.2849    2.5559    0.0000 C   0  0  0  0  0  0  0  0  0  0  0  0
    7.9993    2.1434    0.0000 C   0  0  0  0  0  0  0  0  0  0  0  0
    8.7138    2.5559    0.0000 C   0  0  0  0  0  0  0  0  0  0  0  0
  1  2  1  0  0  0  0
  2  3  1  0  0  0  0
  3  4  1  0  0  0  0
  4  5  1  0  0  0  0
  5  6  1  0  0  0  0
  6  7  1  0  0  0  0
  7  8  1  0  0  0  0
  8  9  1  0  0  0  0
M  END
> <activity>
3.2

> <InChiKey>
BKIMMITUMNQMOS-UHFFFAOYSA-N

$$$$

  Mrv2220 08292413132D          

 13 12  0  0  0  0            999 V2000
    4.2355    3.2704    0.0000 O   0  0  0  0  0  0  0  0  0  0  0  0
    4.9500    2.8579    0.0000 C   0  0  0  0  0  0  0  0  0  0  0  0
    4.9500    2.0329    0.0000 O   0  0  0  0  0  0  0  0  0  0  0  0
    5.6645    3.2704    0.0000 C   0  0  0  0  0  0  0  0  0  0  0  0
    6.3789    2.8579    0.0000 C   0  0  0  0  0  0  0  0  0  0  0  0
    7.0934    3.2704    0.0000 C   0  0  0  0  0  0  0  0  0  0  0  0
    7.8079    2.8579    0.0000 C   0  0  0  0  0  0  0  0  0  0  0  0
    8.5224    3.2704    0.0000 C   0  0  0  0  0  0  0  0  0  0  0  0
    9.2368    2.8579    0.0000 C   0  0  0  0  0  0  0  0  0  0  0  0
    9.9513    3.2704    0.0000 C   0  0  0  0  0  0  0  0  0  0  0  0
   10.6658    2.8579    0.0000 C   0  0  0  0  0  0  0  0  0  0  0  0
   11.3802    3.2704    0.0000 O   0  0  0  0  0  0  0  0  0  0  0  0
   10.6658    2.0329    0.0000 O   0  0  0  0  0  0  0  0  0  0  0  0
  1  2  2  0  0  0  0
  2  3  1  0  0  0  0
  2  4  1  0  0  0  0
  4  5  1  0  0  0  0
  5  6  1  0  0  0  0
  6  7  1  0  0  0  0
  7  8  1  0  0  0  0
  8  9  1  0  0  0  0
  9 10  1  0  0  0  0
 10 11  1  0  0  0  0
 11 12  2  0  0  0  0
 11 13  1  0  0  0  0
M  END
> <activity>
20.8

> <InChiKey>
BDJRBEYXGGNYIS-UHFFFAOYSA-N

$$$$

  Mrv2220 08292413132D          

 11 10  0  0  0  0            999 V2000
    2.2836    2.1434    0.0000 C   0  0  0  0  0  0  0  0  0  0  0  0
    2.9980    2.5559    0.0000 C   0  0  0  0  0  0  0  0  0  0  0  0
    3.7125    2.1434    0.0000 C   0  0  0  0  0  0  0  0  0  0  0  0
    4.4270    2.5559    0.0000 C   0  0  0  0  0  0  0  0  0  0  0  0
    5.1414    2.1434    0.0000 C   0  0  0  0  0  0  0  0  0  0  0  0
    5.8559    2.5559    0.0000 C   0  0  0  0  0  0  0  0  0  0  0  0
    6.5704    2.1434    0.0000 C   0  0  0  0  0  0  0  0  0  0  0  0
    7.2849    2.5559    0.0000 C   0  0  0  0  0  0  0  0  0  0  0  0
    7.9993    2.1434    0.0000 C   0  0  0  0  0  0  0  0  0  0  0  0
    8.7138    2.5559    0.0000 O   0  0  0  0  0  0  0  0  0  0  0  0
    7.9993    1.3184    0.0000 O   0  0  0  0  0  0  0  0  0  0  0  0
  1  2  1  0  0  0  0
  2  3  1  0  0  0  0
  3  4  1  0  0  0  0
  4  5  1  0  0  0  0
  5  6  1  0  0  0  0
  6  7  1  0  0  0  0
  7  8  1  0  0  0  0
  8  9  1  0  0  0  0
  9 10  2  0  0  0  0
  9 11  1  0  0  0  0
M  END
> <activity>
94.0

> <InChiKey>
FBUKVWPVBMHYJY-UHFFFAOYSA-N

$$$$

  Mrv2220 08292413132D          

 22 23  0  0  0  0            999 V2000
    1.4289   -1.6500    0.0000 C   0  0  0  0  0  0  0  0  0  0  0  0
    1.4289   -2.4750    0.0000 C   0  0  0  0  0  0  0  0  0  0  0  0
    0.7145   -2.8875    0.0000 C   0  0  0  0  0  0  0  0  0  0  0  0
    0.0000   -2.4750    0.0000 C   0  0  0  0  0  0  0  0  0  0  0  0
   -0.7145   -2.8875    0.0000 C   0  0  0  0  0  0  0  0  0  0  0  0
   -1.4289   -2.4750    0.0000 C   0  0  0  0  0  0  0  0  0  0  0  0
   -1.4289   -1.6500    0.0000 C   0  0  0  0  0  0  0  0  0  0  0  0
   -2.1434   -1.2375    0.0000 O   0  0  0  0  0  0  0  0  0  0  0  0
   -0.7145   -1.2375    0.0000 C   0  0  0  0  0  0  0  0  0  0  0  0
   -0.7145   -0.4125    0.0000 O   0  0  0  0  0  0  0  0  0  0  0  0
    0.0000   -1.6500    0.0000 C   0  0  0  0  0  0  0  0  0  0  0  0
    2.1434   -2.8875    0.0000 C   0  0  0  0  0  0  0  0  0  0  0  0
    2.1434   -3.7125    0.0000 C   0  0  0  0  0  0  0  0  0  0  0  0
    2.8579   -2.4750    0.0000 C   0  0  0  0  0  0  0  0  0  0  0  0
    3.5724   -2.8875    0.0000 C   0  0  0  0  0  0  0  0  0  0  0  0
    4.2868   -2.4750    0.0000 C   0  0  0  0  0  0  0  0  0  0  0  0
    5.0013   -2.8875    0.0000 C   0  0  0  0  0  0  0  0  0  0  0  0
    5.0013   -3.7125    0.0000 C   0  0  0  0  0  0  0  0  0  0  0  0
    5.7158   -4.1250    0.0000 O   0  0  0  0  0  0  0  0  0  0  0  0
    4.2868   -4.1250    0.0000 C   0  0  0  0  0  0  0  0  0  0  0  0
    4.2868   -4.9500    0.0000 O   0  0  0  0  0  0  0  0  0  0  0  0
    3.5724   -3.7125    0.0000 C   0  0  0  0  0  0  0  0  0  0  0  0
  1  2  1  0  0  0  0
  2  3  1  0  0  0  0
  3  4  1  0  0  0  0
  4  5  4  0  0  0  0
  5  6  4  0  0  0  0
  6  7  4  0  0  0  0
  7  8  1  0  0  0  0
  7  9  4  0  0  0  0
  9 10  1  0  0  0  0
  9 11  4  0  0  0  0
  4 11  4  0  0  0  0
  2 12  1  0  0  0  0
 12 13  1  0  0  0  0
 12 14  1  0  0  0  0
 14 15  1  0  0  0  0
 15 16  4  0  0  0  0
 16 17  4  0  0  0  0
 17 18  4  0  0  0  0
 18 19  1  0  0  0  0
 18 20  4  0  0  0  0
 20 21  1  0  0  0  0
 20 22  4  0  0  0  0
 15 22  4  0  0  0  0
M  END
> <activity>
108.6

> <InChiKey>
HCZKYJDFEPMADG-UHFFFAOYSA-N

$$$$

  Mrv2220 08292413132D          

 22 25  0  0  0  0            999 V2000
    1.4440   -2.7799    0.0000 C   0  0  0  0  0  0  0  0  0  0  0  0
    2.2561   -2.6347    0.0000 C   0  0  0  0  0  0  0  0  0  0  0  0
    3.0683   -2.4895    0.0000 C   0  0  0  0  0  0  0  0  0  0  0  0
    3.1278   -3.3123    0.0000 O   0  0  0  0  0  0  0  0  0  0  0  0
    2.8390   -1.6970    0.0000 C   0  0  0  0  0  0  0  0  0  0  0  0
    3.5218   -1.2340    0.0000 C   0  0  0  0  0  0  0  0  0  0  0  0
    4.1731   -1.7404    0.0000 C   0  0  0  0  0  0  0  0  0  0  0  0
    4.9853   -1.5952    0.0000 C   0  0  0  0  0  0  0  0  0  0  0  0
    5.2655   -0.8192    0.0000 C   0  0  0  0  0  0  0  0  0  0  0  0
    6.0777   -0.6740    0.0000 C   0  0  0  0  0  0  0  0  0  0  0  0
    6.6095   -1.3047    0.0000 C   0  0  0  0  0  0  0  0  0  0  0  0
    7.4216   -1.1595    0.0000 C   0  0  0  0  0  0  0  0  0  0  0  0
    7.9534   -1.7902    0.0000 C   0  0  0  0  0  0  0  0  0  0  0  0
    8.7655   -1.6450    0.0000 O   0  0  0  0  0  0  0  0  0  0  0  0
    7.6731   -2.5662    0.0000 C   0  0  0  0  0  0  0  0  0  0  0  0
    6.8610   -2.7114    0.0000 C   0  0  0  0  0  0  0  0  0  0  0  0
    6.3292   -2.0807    0.0000 C   0  0  0  0  0  0  0  0  0  0  0  0
    5.5171   -2.2259    0.0000 C   0  0  0  0  0  0  0  0  0  0  0  0
    5.2368   -3.0018    0.0000 C   0  0  0  0  0  0  0  0  0  0  0  0
    4.4247   -3.1470    0.0000 C   0  0  0  0  0  0  0  0  0  0  0  0
    3.8928   -2.5163    0.0000 C   0  0  0  0  0  0  0  0  0  0  0  0
    3.5330   -3.2587    0.0000 C   0  0  0  0  0  0  0  0  0  0  0  0
  1  2  3  0  0  0  0
  2  3  1  0  0  0  0
  3  4  1  0  0  0  0
  3  5  1  0  0  0  0
  5  6  1  0  0  0  0
  6  7  1  0  0  0  0
  7  8  1  0  0  0  0
  8  9  1  0  0  0  0
  9 10  1  0  0  0  0
 10 11  1  0  0  0  0
 11 12  2  0  0  0  0
 12 13  1  0  0  0  0
 13 14  2  0  0  0  0
 13 15  1  0  0  0  0
 15 16  1  0  0  0  0
 16 17  1  0  0  0  0
 11 17  1  0  0  0  0
 17 18  1  0  0  0  0
  8 18  1  0  0  0  0
 18 19  1  0  0  0  0
 19 20  1  0  0  0  0
 20 21  1  0  0  0  0
  7 21  1  0  0  0  0
  3 21  1  0  0  0  0
 21 22  1  0  0  0  0
M  END
> <activity>
15.8

> <InChiKey>
VIKNJXKGJWUCNN-UHFFFAOYSA-N

$$$$

  Mrv2220 08292413132D          

 20 21  0  0  0  0            999 V2000
    0.0000    0.0000    0.0000 C   0  0  0  0  0  0  0  0  0  0  0  0
    0.7145   -0.4125    0.0000 N   0  0  0  0  0  0  0  0  0  0  0  0
    0.7145   -1.2375    0.0000 C   0  0  0  0  0  0  0  0  0  0  0  0
    1.4289   -1.6500    0.0000 C   0  0  0  0  0  0  0  0  0  0  0  0
    1.4289   -2.4750    0.0000 N   0  0  0  0  0  0  0  0  0  0  0  0
    0.7145   -2.8875    0.0000 N   0  0  0  0  0  0  0  0  0  0  0  0
    0.7145   -3.7125    0.0000 C   0  0  0  0  0  0  0  0  0  0  0  0
    1.4289   -4.1250    0.0000 C   0  0  0  0  0  0  0  0  0  0  0  0
    1.4289   -4.9500    0.0000 C   0  0  0  0  0  0  0  0  0  0  0  0
    0.7145   -5.3625    0.0000 C   0  0  0  0  0  0  0  0  0  0  0  0
    0.0000   -4.9500    0.0000 C   0  0  0  0  0  0  0  0  0  0  0  0
   -0.7145   -5.3625    0.0000 C   0  0  0  0  0  0  0  0  0  0  0  0
   -1.4289   -5.7750    0.0000 F   0  0  0  0  0  0  0  0  0  0  0  0
   -1.1270   -4.6480    0.0000 F   0  0  0  0  0  0  0  0  0  0  0  0
   -0.3020   -6.0770    0.0000 F   0  0  0  0  0  0  0  0  0  0  0  0
    0.0000   -4.1250    0.0000 C   0  0  0  0  0  0  0  0  0  0  0  0
    0.0000   -2.4750    0.0000 C   0  0  0  0  0  0  0  0  0  0  0  0
   -0.7145   -2.8875    0.0000 O   0  0  0  0  0  0  0  0  0  0  0  0
    0.0000   -1.6500    0.0000 C   0  0  0  0  0  0  0  0  0  0  0  0
   -0.7145   -1.2375    0.0000 Cl  0  0  0  0  0  0  0  0  0  0  0  0
  1  2  1  0  0  0  0
  2  3  1  0  0  0  0
  3  4  4  0  0  0  0
  4  5  4  0  0  0  0
  5  6  4  0  0  0  0
  6  7  1  0  0  0  0
  7  8  4  0  0  0  0
  8  9  4  0  0  0  0
  9 10  4  0  0  0  0
 10 11  4  0  0  0  0
 11 12  1  0  0  0  0
 12 13  1  0  0  0  0
 12 14  1  0  0  0  0
 12 15  1  0  0  0  0
 11 16  4  0  0  0  0
  7 16  4  0  0  0  0
  6 17  4  0  0  0  0
 17 18  2  0  0  0  0
 17 19  4  0  0  0  0
  3 19  4  0  0  0  0
 19 20  1  0  0  0  0
M  END
> <activity>
48.0

> <InChiKey>
NVGOPFQZYCNLDU-UHFFFAOYSA-N

$$$$

  Mrv2220 08292413132D          

 17 18  0  0  0  0            999 V2000
    1.4289   -1.6500    0.0000 C   0  0  0  0  0  0  0  0  0  0  0  0
    1.4289   -2.4750    0.0000 C   0  0  0  0  0  0  0  0  0  0  0  0
    2.1434   -2.8875    0.0000 C   0  0  0  0  0  0  0  0  0  0  0  0
    2.1434   -3.7125    0.0000 C   0  0  0  0  0  0  0  0  0  0  0  0
    2.8579   -4.1250    0.0000 N   0  0  0  0  0  0  0  0  0  0  0  0
    3.5724   -3.7125    0.0000 N   0  0  0  0  0  0  0  0  0  0  0  0
    4.2868   -4.1250    0.0000 C   0  0  0  0  0  0  0  0  0  0  0  0
    5.0013   -3.7125    0.0000 C   0  0  0  0  0  0  0  0  0  0  0  0
    5.7158   -4.1250    0.0000 C   0  0  0  0  0  0  0  0  0  0  0  0
    5.7158   -4.9500    0.0000 C   0  0  0  0  0  0  0  0  0  0  0  0
    5.0013   -5.3625    0.0000 C   0  0  0  0  0  0  0  0  0  0  0  0
    4.2868   -4.9500    0.0000 C   0  0  0  0  0  0  0  0  0  0  0  0
    3.5724   -5.3625    0.0000 C   0  0  0  0  0  0  0  0  0  0  0  0
    1.4289   -4.1250    0.0000 C   0  0  0  0  0  0  0  0  0  0  0  0
    0.7145   -3.7125    0.0000 C   0  0  0  0  0  0  0  0  0  0  0  0
    0.7145   -2.8875    0.0000 C   0  0  0  0  0  0  0  0  0  0  0  0
    0.0000   -2.4750    0.0000 N   0  0  0  0  0  0  0  0  0  0  0  0
  1  2  1  0  0  0  0
  2  3  4  0  0  0  0
  3  4  4  0  0  0  0
  5  4  1  4  0  0  0
  5  6  2  0  0  0  0
  6  7  1  0  0  0  0
  7  8  4  0  0  0  0
  8  9  4  0  0  0  0
  9 10  4  0  0  0  0
 10 11  4  0  0  0  0
 11 12  4  0  0  0  0
  7 12  4  0  0  0  0
 12 13  1  0  0  0  0
  4 14  4  0  0  0  0
 14 15  4  0  0  0  0
 15 16  4  0  0  0  0
  2 16  4  0  0  0  0
 16 17  1  0  0  0  0
M  END
> <activity>
111.0

> <InChiKey>
PFRYFZZSECNQOL-UHFFFAOYSA-N

$$$$

  Mrv2220 08292413132D          

  8  8  0  0  0  0            999 V2000
    0.7145    2.0625    0.0000 C   0  0  0  0  0  0  0  0  0  0  0  0
    0.7145    1.2375    0.0000 C   0  0  0  0  0  0  0  0  0  0  0  0
    1.4289    0.8250    0.0000 C   0  0  0  0  0  0  0  0  0  0  0  0
    1.4289   -0.0000    0.0000 C   0  0  0  0  0  0  0  0  0  0  0  0
    0.7145   -0.4125    0.0000 C   0  0  0  0  0  0  0  0  0  0  0  0
    0.0000    0.0000    0.0000 C   0  0  0  0  0  0  0  0  0  0  0  0
    0.0000    0.8250    0.0000 C   0  0  0  0  0  0  0  0  0  0  0  0
   -0.7145    1.2375    0.0000 O   0  0  0  0  0  0  0  0  0  0  0  0
  1  2  1  0  0  0  0
  2  3  4  0  0  0  0
  3  4  4  0  0  0  0
  4  5  4  0  0  0  0
  5  6  4  0  0  0  0
  6  7  4  0  0  0  0
  2  7  4  0  0  0  0
  7  8  1  0  0  0  0
M  END
> <activity>
47.4

> <InChiKey>
QWVGKYWNOKOFNN-UHFFFAOYSA-N

$$$$

  Mrv2220 08292413132D          

 19 20  0  0  0  0            999 V2000
    2.1434   -0.4125    0.0000 Cl  0  0  0  0  0  0  0  0  0  0  0  0
    2.1434   -1.2375    0.0000 C   0  0  0  0  0  0  0  0  0  0  0  0
    2.8579   -1.6500    0.0000 C   0  0  0  0  0  0  0  0  0  0  0  0
    2.8579   -2.4750    0.0000 C   0  0  0  0  0  0  0  0  0  0  0  0
    2.1434   -2.8875    0.0000 C   0  0  0  0  0  0  0  0  0  0  0  0
    2.1434   -3.7125    0.0000 C   0  0  0  0  0  0  0  0  0  0  0  0
    1.4289   -4.1250    0.0000 C   0  0  0  0  0  0  0  0  0  0  0  0
    1.4289   -4.9500    0.0000 C   0  0  0  0  0  0  0  0  0  0  0  0
    0.7145   -5.3625    0.0000 C   0  0  0  0  0  0  0  0  0  0  0  0
   -0.0000   -4.9500    0.0000 C   0  0  0  0  0  0  0  0  0  0  0  0
    0.0000   -4.1250    0.0000 C   0  0  0  0  0  0  0  0  0  0  0  0
    0.7145   -3.7125    0.0000 C   0  0  0  0  0  0  0  0  0  0  0  0
    0.7145   -2.8875    0.0000 Cl  0  0  0  0  0  0  0  0  0  0  0  0
    2.8579   -4.1250    0.0000 C   0  0  0  0  0  0  0  0  0  0  0  0
    3.5724   -4.5375    0.0000 Cl  0  0  0  0  0  0  0  0  0  0  0  0
    2.4454   -4.8395    0.0000 Cl  0  0  0  0  0  0  0  0  0  0  0  0
    3.2704   -3.4105    0.0000 Cl  0  0  0  0  0  0  0  0  0  0  0  0
    1.4289   -2.4750    0.0000 C   0  0  0  0  0  0  0  0  0  0  0  0
    1.4289   -1.6500    0.0000 C   0  0  0  0  0  0  0  0  0  0  0  0
  1  2  1  0  0  0  0
  2  3  4  0  0  0  0
  3  4  4  0  0  0  0
  4  5  4  0  0  0  0
  5  6  1  0  0  0  0
  6  7  1  0  0  0  0
  7  8  4  0  0  0  0
  8  9  4  0  0  0  0
  9 10  4  0  0  0  0
 10 11  4  0  0  0  0
 11 12  4  0  0  0  0
  7 12  4  0  0  0  0
 12 13  1  0  0  0  0
  6 14  1  0  0  0  0
 14 15  1  0  0  0  0
 14 16  1  0  0  0  0
 14 17  1  0  0  0  0
  5 18  4  0  0  0  0
 18 19  4  0  0  0  0
  2 19  4  0  0  0  0
M  END
> <activity>
22.5

> <InChiKey>
CVUGPAFCQJIYDT-UHFFFAOYSA-N

$$$$

  Mrv2220 08292413132D          

 24 25  0  0  0  0            999 V2000
   -5.7158   -6.6000    0.0000 C   0  0  0  0  0  0  0  0  0  0  0  0
   -5.0013   -7.0125    0.0000 C   0  0  0  0  0  0  0  0  0  0  0  0
   -4.2868   -6.6000    0.0000 C   0  0  0  0  0  0  0  0  0  0  0  0
   -3.5724   -7.0125    0.0000 C   0  0  0  0  0  0  0  0  0  0  0  0
   -2.8579   -6.6000    0.0000 C   0  0  0  0  0  0  0  0  0  0  0  0
   -2.1434   -7.0125    0.0000 C   0  0  0  0  0  0  0  0  0  0  0  0
   -1.4289   -6.6000    0.0000 C   0  0  0  0  0  0  0  0  0  0  0  0
   -0.7145   -7.0125    0.0000 C   0  0  0  0  0  0  0  0  0  0  0  0
    0.0000   -6.6000    0.0000 O   0  0  0  0  0  0  0  0  0  0  0  0
    0.7145   -7.0125    0.0000 C   0  0  0  0  0  0  0  0  0  0  0  0
    1.4289   -6.6000    0.0000 C   0  0  0  0  0  0  0  0  0  0  0  0
    2.1434   -7.0125    0.0000 C   0  0  0  0  0  0  0  0  0  0  0  0
    2.1434   -7.8375    0.0000 C   0  0  0  0  0  0  0  0  0  0  0  0
    2.8579   -8.2500    0.0000 C   0  0  0  0  0  0  0  0  0  0  0  0
    2.8579   -9.0750    0.0000 O   0  0  0  0  0  0  0  0  0  0  0  0
    3.5724   -7.8375    0.0000 C   0  0  0  0  0  0  0  0  0  0  0  0
    3.5724   -7.0125    0.0000 C   0  0  0  0  0  0  0  0  0  0  0  0
    4.2868   -6.6000    0.0000 C   0  0  0  0  0  0  0  0  0  0  0  0
    5.0013   -7.0125    0.0000 C   0  0  0  0  0  0  0  0  0  0  0  0
    5.0013   -7.8375    0.0000 C   0  0  0  0  0  0  0  0  0  0  0  0
    4.2868   -8.2500    0.0000 C   0  0  0  0  0  0  0  0  0  0  0  0
    1.4289   -8.2500    0.0000 C   0  0  0  0  0  0  0  0  0  0  0  0
    1.4289   -9.0750    0.0000 O   0  0  0  0  0  0  0  0  0  0  0  0
    0.7145   -7.8375    0.0000 C   0  0  0  0  0  0  0  0  0  0  0  0
  1  2  1  0  0  0  0
  2  3  1  0  0  0  0
  3  4  1  0  0  0  0
  4  5  1  0  0  0  0
  5  6  1  0  0  0  0
  6  7  1  0  0  0  0
  7  8  1  0  0  0  0
  8  9  1  0  0  0  0
  9 10  1  0  0  0  0
 10 11  4  0  0  0  0
 11 12  4  0  0  0  0
 12 13  4  0  0  0  0
 13 14  1  0  0  0  0
 14 15  2  0  0  0  0
 14 16  1  0  0  0  0
 16 17  4  0  0  0  0
 17 18  4  0  0  0  0
 18 19  4  0  0  0  0
 19 20  4  0  0  0  0
 20 21  4  0  0  0  0
 16 21  4  0  0  0  0
 13 22  4  0  0  0  0
 22 23  1  0  0  0  0
 22 24  4  0  0  0  0
 10 24  4  0  0  0  0
M  END
> <activity>
92.7

> <InChiKey>
QUAMTGJKVDWJEQ-UHFFFAOYSA-N

$$$$

  Mrv2220 08292413132D          

 16 16  0  0  0  0            999 V2000
    1.4981    2.1449    0.0000 C   0  0  0  0  0  0  0  0  0  0  0  0
    0.9959    1.4904    0.0000 Si  0  0  0  0  0  0  0  0  0  0  0  0
    0.4936    2.1449    0.0000 C   0  0  0  0  0  0  0  0  0  0  0  0
    1.7581    1.1747    0.0000 O   0  0  0  0  0  0  0  0  0  0  0  0
    2.0738    0.4125    0.0000 Si  0  0  0  0  0  0  0  0  0  0  0  0
    2.7283    0.9147    0.0000 C   0  0  0  0  0  0  0  0  0  0  0  0
    2.7283   -0.0897    0.0000 C   0  0  0  0  0  0  0  0  0  0  0  0
    1.7581   -0.3497    0.0000 O   0  0  0  0  0  0  0  0  0  0  0  0
    0.9959   -0.6654    0.0000 Si  0  0  0  0  0  0  0  0  0  0  0  0
    1.4981   -1.3199    0.0000 C   0  0  0  0  0  0  0  0  0  0  0  0
    0.4936   -1.3199    0.0000 C   0  0  0  0  0  0  0  0  0  0  0  0
    0.2337   -0.3497    0.0000 O   0  0  0  0  0  0  0  0  0  0  0  0
   -0.0821    0.4125    0.0000 Si  0  0  0  0  0  0  0  0  0  0  0  0
   -0.7366   -0.0897    0.0000 C   0  0  0  0  0  0  0  0  0  0  0  0
   -0.7366    0.9147    0.0000 C   0  0  0  0  0  0  0  0  0  0  0  0
    0.2337    1.1747    0.0000 O   0  0  0  0  0  0  0  0  0  0  0  0
  1  2  1  0  0  0  0
  2  3  1  0  0  0  0
  2  4  1  0  0  0  0
  4  5  1  0  0  0  0
  5  6  1  0  0  0  0
  5  7  1  0  0  0  0
  5  8  1  0  0  0  0
  8  9  1  0  0  0  0
  9 10  1  0  0  0  0
  9 11  1  0  0  0  0
  9 12  1  0  0  0  0
 12 13  1  0  0  0  0
 13 14  1  0  0  0  0
 13 15  1  0  0  0  0
 13 16  1  0  0  0  0
  2 16  1  0  0  0  0
M  END
> <activity>
-1.3

> <InChiKey>
HMMGMWAXVFQUOA-UHFFFAOYSA-N

$$$$

  Mrv2220 08292413132D          

  9  8  0  0  0  0            999 V2000
    2.9980    2.5559    0.0000 C   0  0  0  0  0  0  0  0  0  0  0  0
    3.7125    2.1434    0.0000 C   0  0  0  0  0  0  0  0  0  0  0  0
    4.4270    2.5559    0.0000 C   0  0  0  0  0  0  0  0  0  0  0  0
    5.1414    2.1434    0.0000 C   0  0  0  0  0  0  0  0  0  0  0  0
    5.8559    2.5559    0.0000 C   0  0  0  0  0  0  0  0  0  0  0  0
    6.5704    2.1434    0.0000 C   0  0  0  0  0  0  0  0  0  0  0  0
    7.2849    2.5559    0.0000 C   0  0  0  0  0  0  0  0  0  0  0  0
    7.9993    2.1434    0.0000 C   0  0  0  0  0  0  0  0  0  0  0  0
    8.7138    2.5559    0.0000 O   0  0  0  0  0  0  0  0  0  0  0  0
  1  2  1  0  0  0  0
  2  3  1  0  0  0  0
  3  4  1  0  0  0  0
  4  5  1  0  0  0  0
  5  6  1  0  0  0  0
  6  7  1  0  0  0  0
  7  8  1  0  0  0  0
  8  9  2  0  0  0  0
M  END
> <activity>
-4.9

> <InChiKey>
NUJGJRNETVAIRJ-UHFFFAOYSA-N

$$$$

  Mrv2220 08292413132D          

 10  9  0  0  0  0            999 V2000
    2.9980    2.5559    0.0000 C   0  0  0  0  0  0  0  0  0  0  0  0
    3.7125    2.1434    0.0000 C   0  0  0  0  0  0  0  0  0  0  0  0
    4.4270    2.5559    0.0000 C   0  0  0  0  0  0  0  0  0  0  0  0
    5.1414    2.1434    0.0000 C   0  0  0  0  0  0  0  0  0  0  0  0
    5.8559    2.5559    0.0000 C   0  0  0  0  0  0  0  0  0  0  0  0
    6.5704    2.1434    0.0000 C   0  0  0  0  0  0  0  0  0  0  0  0
    7.2849    2.5559    0.0000 C   0  0  0  0  0  0  0  0  0  0  0  0
    7.9993    2.1434    0.0000 C   0  0  0  0  0  0  0  0  0  0  0  0
    8.7138    2.5559    0.0000 O   0  0  0  0  0  0  0  0  0  0  0  0
    7.9993    1.3184    0.0000 O   0  0  0  0  0  0  0  0  0  0  0  0
  1  2  1  0  0  0  0
  2  3  1  0  0  0  0
  3  4  1  0  0  0  0
  4  5  1  0  0  0  0
  5  6  1  0  0  0  0
  6  7  1  0  0  0  0
  7  8  1  0  0  0  0
  8  9  2  0  0  0  0
  8 10  1  0  0  0  0
M  END
> <activity>
80.5

> <InChiKey>
WWZKQHOCKIZLMA-UHFFFAOYSA-N

$$$$

  Mrv2220 08292413132D          

 14 14  0  0  0  0            999 V2000
    3.5108   -4.3205    0.0000 C   0  0  0  0  0  0  0  0  0  0  0  0
    4.2253   -3.9080    0.0000 C   0  0  0  0  0  0  0  0  0  0  0  0
    4.9398   -4.3205    0.0000 C   0  0  0  0  0  0  0  0  0  0  0  0
    5.6542   -3.9080    0.0000 C   0  0  0  0  0  0  0  0  0  0  0  0
    6.3687   -4.3205    0.0000 C   0  0  0  0  0  0  0  0  0  0  0  0
    7.0832   -3.9080    0.0000 C   0  0  0  0  0  0  0  0  0  0  0  0
    7.7976   -4.3205    0.0000 C   0  0  0  0  0  0  0  0  0  0  0  0
    8.5121   -3.9080    0.0000 C   0  0  0  0  0  0  0  0  0  0  0  0
    9.2266   -4.3205    0.0000 N   0  0  0  0  0  0  0  0  0  0  0  0
    9.9803   -3.9849    0.0000 S   0  0  0  0  0  0  0  0  0  0  0  0
   10.5323   -4.5980    0.0000 C   0  0  0  0  0  0  0  0  0  0  0  0
   10.1198   -5.3125    0.0000 C   0  0  0  0  0  0  0  0  0  0  0  0
    9.3128   -5.1410    0.0000 C   0  0  0  0  0  0  0  0  0  0  0  0
    8.6997   -5.6930    0.0000 O   0  0  0  0  0  0  0  0  0  0  0  0
  1  2  1  0  0  0  0
  2  3  1  0  0  0  0
  3  4  1  0  0  0  0
  4  5  1  0  0  0  0
  5  6  1  0  0  0  0
  6  7  1  0  0  0  0
  7  8  1  0  0  0  0
  8  9  1  0  0  0  0
  9 10  4  0  0  0  0
 10 11  4  0  0  0  0
 11 12  4  0  0  0  0
 12 13  4  0  0  0  0
  9 13  4  0  0  0  0
 13 14  2  0  0  0  0
M  END
> <activity>
40.3

> <InChiKey>
JPMIIZHYYWMHDT-UHFFFAOYSA-N

$$$$

  Mrv2220 08292413132D          

 24 26  0  0  0  0            999 V2000
   -3.8837   -2.8414    0.0000 C   0  0  0  0  0  0  0  0  0  0  0  0
   -3.0587   -2.8414    0.0000 C   0  0  0  0  0  0  0  0  0  0  0  0
   -3.0587   -3.6664    0.0000 C   0  0  0  0  0  0  0  0  0  0  0  0
   -3.0587   -2.0164    0.0000 C   0  0  0  0  0  0  0  0  0  0  0  0
   -2.2337   -2.8414    0.0000 C   0  0  0  0  0  0  0  0  0  0  0  0
   -1.8212   -2.1269    0.0000 C   0  0  0  0  0  0  0  0  0  0  0  0
   -1.1067   -2.5394    0.0000 C   0  0  0  0  0  0  0  0  0  0  0  0
   -2.5357   -1.7144    0.0000 C   0  0  0  0  0  0  0  0  0  0  0  0
   -1.4087   -1.4124    0.0000 C   0  0  0  0  0  0  0  0  0  0  0  0
   -1.8212   -0.6979    0.0000 C   0  0  0  0  0  0  0  0  0  0  0  0
   -1.4087    0.0165    0.0000 C   0  0  0  0  0  0  0  0  0  0  0  0
   -0.5837    0.0165    0.0000 C   0  0  0  0  0  0  0  0  0  0  0  0
   -0.1712    0.7310    0.0000 O   0  0  0  0  0  0  0  0  0  0  0  0
   -0.1712   -0.6979    0.0000 C   0  0  0  0  0  0  0  0  0  0  0  0
    0.6538   -0.6979    0.0000 N   0  0  0  0  0  0  0  0  0  0  0  0
    1.1387   -0.0305    0.0000 N   0  0  0  0  0  0  0  0  0  0  0  0
    1.9233   -0.2854    0.0000 C   0  0  0  0  0  0  0  0  0  0  0  0
    2.6378    0.1271    0.0000 C   0  0  0  0  0  0  0  0  0  0  0  0
    3.3523   -0.2854    0.0000 C   0  0  0  0  0  0  0  0  0  0  0  0
    3.3523   -1.1104    0.0000 C   0  0  0  0  0  0  0  0  0  0  0  0
    2.6378   -1.5229    0.0000 C   0  0  0  0  0  0  0  0  0  0  0  0
    1.9233   -1.1104    0.0000 C   0  0  0  0  0  0  0  0  0  0  0  0
    1.1387   -1.3654    0.0000 N   0  0  0  0  0  0  0  0  0  0  0  0
   -0.5837   -1.4124    0.0000 C   0  0  0  0  0  0  0  0  0  0  0  0
  1  2  1  0  0  0  0
  2  3  1  0  0  0  0
  2  4  1  0  0  0  0
  2  5  1  0  0  0  0
  5  6  1  0  0  0  0
  6  7  1  0  0  0  0
  6  8  1  0  0  0  0
  6  9  1  0  0  0  0
  9 10  4  0  0  0  0
 10 11  4  0  0  0  0
 11 12  4  0  0  0  0
 12 13  1  0  0  0  0
 12 14  4  0  0  0  0
 14 15  1  0  0  0  0
 15 16  4  0  0  0  0
 16 17  4  0  0  0  0
 17 18  4  0  0  0  0
 18 19  4  0  0  0  0
 19 20  4  0  0  0  0
 20 21  4  0  0  0  0
 21 22  4  0  0  0  0
 17 22  4  0  0  0  0
 22 23  4  0  0  0  0
 15 23  4  0  0  0  0
 14 24  4  0  0  0  0
  9 24  4  0  0  0  0
M  END
> <activity>
49.2

> <InChiKey>
IYAZLDLPUNDVAG-UHFFFAOYSA-N

$$$$

  Mrv2220 08292413132D          

 12 11  0  0  0  0            999 V2000
    4.2355    3.2704    0.0000 C   0  0  0  0  0  0  0  0  0  0  0  0
    4.9500    2.8579    0.0000 C   0  0  0  0  0  0  0  0  0  0  0  0
    5.6645    3.2704    0.0000 C   0  0  0  0  0  0  0  0  0  0  0  0
    6.3789    2.8579    0.0000 C   0  0  0  0  0  0  0  0  0  0  0  0
    7.0934    3.2704    0.0000 C   0  0  0  0  0  0  0  0  0  0  0  0
    7.8079    2.8579    0.0000 C   0  0  0  0  0  0  0  0  0  0  0  0
    8.5224    3.2704    0.0000 C   0  0  0  0  0  0  0  0  0  0  0  0
    9.2368    2.8579    0.0000 C   0  0  0  0  0  0  0  0  0  0  0  0
    9.9513    3.2704    0.0000 O   0  0  0  0  0  0  0  0  0  0  0  0
   10.6658    2.8579    0.0000 C   0  0  0  0  0  0  0  0  0  0  0  0
   11.3802    3.2704    0.0000 C   0  0  0  0  0  0  0  0  0  0  0  0
   10.6658    2.0329    0.0000 O   0  0  0  0  0  0  0  0  0  0  0  0
  1  2  1  0  0  0  0
  2  3  1  0  0  0  0
  3  4  1  0  0  0  0
  4  5  1  0  0  0  0
  5  6  1  0  0  0  0
  6  7  1  0  0  0  0
  7  8  1  0  0  0  0
  8  9  1  0  0  0  0
  9 10  1  0  0  0  0
 10 11  1  0  0  0  0
 10 12  2  0  0  0  0
M  END
> <activity>
15.0

> <InChiKey>
YLYBTZIQSIBWLI-UHFFFAOYSA-N

$$$$

  Mrv2220 08292413132D          

 30 30  0  0  0  0            999 V2000
   -3.5724   -7.0125    0.0000 C   0  0  0  0  0  0  0  0  0  0  0  0
   -2.8579   -7.4250    0.0000 C   0  0  0  0  0  0  0  0  0  0  0  0
   -2.1434   -7.0125    0.0000 C   0  0  0  0  0  0  0  0  0  0  0  0
   -1.4289   -7.4250    0.0000 C   0  0  0  0  0  0  0  0  0  0  0  0
   -0.7145   -7.0125    0.0000 C   0  0  0  0  0  0  0  0  0  0  0  0
    0.0000   -7.4250    0.0000 C   0  0  0  0  0  0  0  0  0  0  0  0
    0.7145   -7.0125    0.0000 C   0  0  0  0  0  0  0  0  0  0  0  0
    1.4289   -7.4250    0.0000 C   0  0  0  0  0  0  0  0  0  0  0  0
    2.1434   -7.0125    0.0000 C   0  0  0  0  0  0  0  0  0  0  0  0
    2.8579   -7.4250    0.0000 C   0  0  0  0  0  0  0  0  0  0  0  0
    3.5724   -7.0125    0.0000 O   0  0  0  0  0  0  0  0  0  0  0  0
    4.2868   -7.4250    0.0000 C   0  0  0  0  0  0  0  0  0  0  0  0
    4.2868   -8.2500    0.0000 O   0  0  0  0  0  0  0  0  0  0  0  0
    5.0013   -7.0125    0.0000 C   0  0  0  0  0  0  0  0  0  0  0  0
    5.0013   -6.1875    0.0000 C   0  0  0  0  0  0  0  0  0  0  0  0
    5.7158   -5.7750    0.0000 C   0  0  0  0  0  0  0  0  0  0  0  0
    6.4302   -6.1875    0.0000 C   0  0  0  0  0  0  0  0  0  0  0  0
    6.4302   -7.0125    0.0000 C   0  0  0  0  0  0  0  0  0  0  0  0
    5.7158   -7.4250    0.0000 C   0  0  0  0  0  0  0  0  0  0  0  0
    5.7158   -8.2500    0.0000 C   0  0  0  0  0  0  0  0  0  0  0  0
    5.0013   -8.6625    0.0000 O   0  0  0  0  0  0  0  0  0  0  0  0
    6.4302   -8.6625    0.0000 O   0  0  0  0  0  0  0  0  0  0  0  0
    6.4302   -9.4875    0.0000 C   0  0  0  0  0  0  0  0  0  0  0  0
    7.1447   -9.9000    0.0000 C   0  0  0  0  0  0  0  0  0  0  0  0
    7.1447  -10.7250    0.0000 C   0  0  0  0  0  0  0  0  0  0  0  0
    7.8592  -11.1375    0.0000 C   0  0  0  0  0  0  0  0  0  0  0  0
    7.8592  -11.9625    0.0000 C   0  0  0  0  0  0  0  0  0  0  0  0
    8.5737  -12.3750    0.0000 C   0  0  0  0  0  0  0  0  0  0  0  0
    8.5737  -13.2000    0.0000 C   0  0  0  0  0  0  0  0  0  0  0  0
    9.2881  -13.6125    0.0000 C   0  0  0  0  0  0  0  0  0  0  0  0
  1  2  1  0  0  0  0
  2  3  1  0  0  0  0
  3  4  1  0  0  0  0
  4  5  1  0  0  0  0
  5  6  1  0  0  0  0
  6  7  1  0  0  0  0
  7  8  1  0  0  0  0
  8  9  1  0  0  0  0
  9 10  1  0  0  0  0
 10 11  1  0  0  0  0
 11 12  1  0  0  0  0
 12 13  2  0  0  0  0
 12 14  1  0  0  0  0
 14 15  4  0  0  0  0
 15 16  4  0  0  0  0
 16 17  4  0  0  0  0
 17 18  4  0  0  0  0
 18 19  4  0  0  0  0
 14 19  4  0  0  0  0
 19 20  1  0  0  0  0
 20 21  2  0  0  0  0
 20 22  1  0  0  0  0
 22 23  1  0  0  0  0
 23 24  1  0  0  0  0
 24 25  1  0  0  0  0
 25 26  1  0  0  0  0
 26 27  1  0  0  0  0
 27 28  1  0  0  0  0
 28 29  1  0  0  0  0
 29 30  1  0  0  0  0
M  END
> <activity>
28.0

> <InChiKey>
LVAGMBHLXLZJKZ-UHFFFAOYSA-N

$$$$

  Mrv2220 08292413132D          

 18 18  0  0  0  0            999 V2000
    2.8579   -6.6000    0.0000 C   0  0  0  0  0  0  0  0  0  0  0  0
    3.5724   -6.1875    0.0000 C   0  0  0  0  0  0  0  0  0  0  0  0
    4.2868   -6.6000    0.0000 C   0  0  0  0  0  0  0  0  0  0  0  0
    5.0013   -6.1875    0.0000 C   0  0  0  0  0  0  0  0  0  0  0  0
    5.7158   -6.6000    0.0000 C   0  0  0  0  0  0  0  0  0  0  0  0
    6.4302   -6.1875    0.0000 C   0  0  0  0  0  0  0  0  0  0  0  0
    7.1447   -6.6000    0.0000 C   0  0  0  0  0  0  0  0  0  0  0  0
    7.8592   -6.1875    0.0000 C   0  0  0  0  0  0  0  0  0  0  0  0
    8.5737   -6.6000    0.0000 O   0  0  0  0  0  0  0  0  0  0  0  0
    9.2881   -6.1875    0.0000 C   0  0  0  0  0  0  0  0  0  0  0  0
    9.2881   -5.3625    0.0000 O   0  0  0  0  0  0  0  0  0  0  0  0
   10.0026   -6.6000    0.0000 C   0  0  0  0  0  0  0  0  0  0  0  0
   10.7171   -6.1875    0.0000 C   0  0  0  0  0  0  0  0  0  0  0  0
   11.4315   -6.6000    0.0000 C   0  0  0  0  0  0  0  0  0  0  0  0
   11.4315   -7.4250    0.0000 C   0  0  0  0  0  0  0  0  0  0  0  0
   12.1460   -7.8375    0.0000 O   0  0  0  0  0  0  0  0  0  0  0  0
   10.7171   -7.8375    0.0000 C   0  0  0  0  0  0  0  0  0  0  0  0
   10.0026   -7.4250    0.0000 C   0  0  0  0  0  0  0  0  0  0  0  0
  1  2  1  0  0  0  0
  2  3  1  0  0  0  0
  3  4  1  0  0  0  0
  4  5  1  0  0  0  0
  5  6  1  0  0  0  0
  6  7  1  0  0  0  0
  7  8  1  0  0  0  0
  8  9  1  0  0  0  0
  9 10  1  0  0  0  0
 10 11  2  0  0  0  0
 10 12  1  0  0  0  0
 12 13  4  0  0  0  0
 13 14  4  0  0  0  0
 14 15  4  0  0  0  0
 15 16  1  0  0  0  0
 15 17  4  0  0  0  0
 17 18  4  0  0  0  0
 12 18  4  0  0  0  0
M  END
> <activity>
96.7

> <InChiKey>
RIKCMEDSBFQFAL-UHFFFAOYSA-N

$$$$

  Mrv2220 08292413132D          

 20 19  0  0  0  0            999 V2000
   -4.1467    2.5559    0.0000 C   0  0  0  0  0  0  0  0  0  0  0  0
   -3.4322    2.1434    0.0000 C   0  0  0  0  0  0  0  0  0  0  0  0
   -2.7177    2.5559    0.0000 C   0  0  0  0  0  0  0  0  0  0  0  0
   -2.0033    2.1434    0.0000 C   0  0  0  0  0  0  0  0  0  0  0  0
   -1.2888    2.5559    0.0000 C   0  0  0  0  0  0  0  0  0  0  0  0
   -0.5743    2.1434    0.0000 C   0  0  0  0  0  0  0  0  0  0  0  0
    0.1401    2.5559    0.0000 C   0  0  0  0  0  0  0  0  0  0  0  0
    0.8546    2.1434    0.0000 C   0  0  0  0  0  0  0  0  0  0  0  0
    1.5691    2.5559    0.0000 C   0  0  0  0  0  0  0  0  0  0  0  0
    2.2836    2.1434    0.0000 C   0  0  0  0  0  0  0  0  0  0  0  0
    2.9980    2.5559    0.0000 C   0  0  0  0  0  0  0  0  0  0  0  0
    3.7125    2.1434    0.0000 C   0  0  0  0  0  0  0  0  0  0  0  0
    4.4270    2.5559    0.0000 C   0  0  0  0  0  0  0  0  0  0  0  0
    5.1414    2.1434    0.0000 C   0  0  0  0  0  0  0  0  0  0  0  0
    5.8559    2.5559    0.0000 C   0  0  0  0  0  0  0  0  0  0  0  0
    6.5704    2.1434    0.0000 C   0  0  0  0  0  0  0  0  0  0  0  0
    7.2849    2.5559    0.0000 C   0  0  0  0  0  0  0  0  0  0  0  0
    7.9993    2.1434    0.0000 C   0  0  0  0  0  0  0  0  0  0  0  0
    8.7138    2.5559    0.0000 O   0  0  0  0  0  0  0  0  0  0  0  0
    7.9993    1.3184    0.0000 O   0  0  0  0  0  0  0  0  0  0  0  0
  1  2  1  0  0  0  0
  2  3  1  0  0  0  0
  3  4  1  0  0  0  0
  4  5  1  0  0  0  0
  5  6  1  0  0  0  0
  6  7  1  0  0  0  0
  7  8  1  0  0  0  0
  9  8  1  4  0  0  0
  9 10  2  0  0  0  0
 10 11  1  0  0  0  0
 11 12  1  0  0  0  0
 12 13  1  0  0  0  0
 13 14  1  0  0  0  0
 14 15  1  0  0  0  0
 15 16  1  0  0  0  0
 16 17  1  0  0  0  0
 17 18  1  0  0  0  0
 18 19  2  0  0  0  0
 18 20  1  0  0  0  0
M  END
> <activity>
98.2

> <InChiKey>
ZQPPMHVWECSIRJ-UHFFFAOYSA-N

$$$$

  Mrv2220 08292413132D          

  6  5  0  0  0  0            999 V2000
    0.8250    1.4289    0.0000 O   0  0  0  0  0  0  0  0  0  0  0  0
    1.2375    0.7145    0.0000 C   0  0  0  0  0  0  0  0  0  0  0  0
    2.0625    0.7145    0.0000 O   0  0  0  0  0  0  0  0  0  0  0  0
    0.8250    0.0000    0.0000 C   0  0  0  0  0  0  0  0  0  0  0  0
    1.2375   -0.7145    0.0000 O   0  0  0  0  0  0  0  0  0  0  0  0
    0.0000    0.0000    0.0000 O   0  0  0  0  0  0  0  0  0  0  0  0
  1  2  2  0  0  0  0
  2  3  1  0  0  0  0
  2  4  1  0  0  0  0
  4  5  2  0  0  0  0
  4  6  1  0  0  0  0
M  END
> <activity>
18.5

> <InChiKey>
MUBZPKHOEPUJKR-UHFFFAOYSA-N

$$$$

  Mrv2220 08292413132D          

 14 13  0  0  0  0            999 V2000
    3.3000    1.4289    0.0000 C   0  0  0  0  0  0  0  0  0  0  0  0
    2.4750    1.4289    0.0000 N   0  0  0  0  0  0  0  0  0  0  0  0
    2.0625    0.7145    0.0000 C   0  0  0  0  0  0  0  0  0  0  0  0
    2.4750    0.0000    0.0000 O   0  0  0  0  0  0  0  0  0  0  0  0
    1.2375    0.7145    0.0000 O   0  0  0  0  0  0  0  0  0  0  0  0
    0.8250    0.0000    0.0000 N   0  0  0  0  0  0  0  0  0  0  0  0
    0.0000    0.0000    0.0000 C   0  0  0  0  0  0  0  0  0  0  0  0
   -0.4125    0.7145    0.0000 S   0  0  0  0  0  0  0  0  0  0  0  0
   -1.2375    0.7145    0.0000 C   0  0  0  0  0  0  0  0  0  0  0  0
   -0.4125   -0.7145    0.0000 C   0  0  0  0  0  0  0  0  0  0  0  0
    0.0000   -1.4289    0.0000 O   0  0  0  0  0  0  0  0  0  0  0  0
   -1.2375   -0.7145    0.0000 N   0  0  0  0  0  0  0  0  0  0  0  0
   -1.6500   -1.4289    0.0000 C   0  0  0  0  0  0  0  0  0  0  0  0
   -1.6500    0.0000    0.0000 C   0  0  0  0  0  0  0  0  0  0  0  0
  1  2  1  0  0  0  0
  2  3  1  0  0  0  0
  3  4  2  0  0  0  0
  3  5  1  0  0  0  0
  6  5  1  4  0  0  0
  6  7  2  0  0  0  0
  7  8  1  0  0  0  0
  8  9  1  0  0  0  0
  7 10  1  0  0  0  0
 10 11  2  0  0  0  0
 10 12  1  0  0  0  0
 12 13  1  0  0  0  0
 12 14  1  0  0  0  0
M  END
> <activity>
23.9

> <InChiKey>
KZAUOCCYDRDERY-UHFFFAOYSA-N

$$$$

  Mrv2220 08292413132D          

 20 22  0  0  0  0            999 V2000
    2.5552    0.2525    0.0000 O   0  0  0  0  0  0  0  0  0  0  0  0
    2.0408    0.8975    0.0000 C   0  0  0  0  0  0  0  0  0  0  0  0
    1.2365    0.7139    0.0000 N   0  0  0  0  0  0  0  0  0  0  0  0
    0.5915    1.2283    0.0000 C   0  0  0  0  0  0  0  0  0  0  0  0
   -0.1230    0.8158    0.0000 C   0  0  0  0  0  0  0  0  0  0  0  0
   -0.8374    1.2283    0.0000 C   0  0  0  0  0  0  0  0  0  0  0  0
   -0.8374    2.0533    0.0000 C   0  0  0  0  0  0  0  0  0  0  0  0
   -1.5519    2.4658    0.0000 Cl  0  0  0  0  0  0  0  0  0  0  0  0
   -0.1230    2.4658    0.0000 C   0  0  0  0  0  0  0  0  0  0  0  0
    0.5915    2.0533    0.0000 C   0  0  0  0  0  0  0  0  0  0  0  0
    1.2365    2.5677    0.0000 C   0  0  0  0  0  0  0  0  0  0  0  0
    1.0529    3.3720    0.0000 C   0  0  0  0  0  0  0  0  0  0  0  0
    0.2646    3.6152    0.0000 C   0  0  0  0  0  0  0  0  0  0  0  0
    0.0810    4.4195    0.0000 C   0  0  0  0  0  0  0  0  0  0  0  0
    0.6858    4.9806    0.0000 C   0  0  0  0  0  0  0  0  0  0  0  0
    1.4741    4.7374    0.0000 C   0  0  0  0  0  0  0  0  0  0  0  0
    1.6577    3.9331    0.0000 C   0  0  0  0  0  0  0  0  0  0  0  0
    2.0408    2.3841    0.0000 N   0  0  0  0  0  0  0  0  0  0  0  0
    2.3988    1.6408    0.0000 C   0  0  0  0  0  0  0  0  0  0  0  0
    3.2238    1.6408    0.0000 O   0  0  0  0  0  0  0  0  0  0  0  0
  1  2  2  0  0  0  0
  2  3  1  0  0  0  0
  3  4  1  0  0  0  0
  4  5  4  0  0  0  0
  5  6  4  0  0  0  0
  6  7  4  0  0  0  0
  7  8  1  0  0  0  0
  7  9  4  0  0  0  0
  9 10  4  0  0  0  0
  4 10  4  0  0  0  0
 10 11  1  0  0  0  0
 11 12  1  0  0  0  0
 12 13  4  0  0  0  0
 13 14  4  0  0  0  0
 14 15  4  0  0  0  0
 15 16  4  0  0  0  0
 16 17  4  0  0  0  0
 12 17  4  0  0  0  0
 11 18  2  0  0  0  0
 18 19  1  0  0  0  0
  2 19  1  0  0  0  0
 19 20  1  0  0  0  0
M  END
> <activity>
23.5

> <InChiKey>
ADIMAYPTOBDMTL-UHFFFAOYSA-N

$$$$

  Mrv2220 08292413132D          

 24 25  0  0  0  0            999 V2000
    1.4289    0.8250    0.0000 C   0  0  0  0  0  0  0  0  0  0  0  0
    1.4289    0.0000    0.0000 C   0  0  0  0  0  0  0  0  0  0  0  0
    2.1434   -0.4125    0.0000 O   0  0  0  0  0  0  0  0  0  0  0  0
    2.1434   -1.2375    0.0000 C   0  0  0  0  0  0  0  0  0  0  0  0
    2.8579   -1.6500    0.0000 C   0  0  0  0  0  0  0  0  0  0  0  0
    2.8579   -2.4750    0.0000 C   0  0  0  0  0  0  0  0  0  0  0  0
    3.5724   -2.8875    0.0000 O   0  0  0  0  0  0  0  0  0  0  0  0
    3.5724   -3.7125    0.0000 C   0  0  0  0  0  0  0  0  0  0  0  0
    4.2868   -4.1250    0.0000 C   0  0  0  0  0  0  0  0  0  0  0  0
    4.2868   -4.9500    0.0000 C   0  0  0  0  0  0  0  0  0  0  0  0
    3.5724   -5.3625    0.0000 C   0  0  0  0  0  0  0  0  0  0  0  0
    3.5724   -6.1875    0.0000 C   0  0  0  0  0  0  0  0  0  0  0  0
    3.5724   -7.0125    0.0000 F   0  0  0  0  0  0  0  0  0  0  0  0
    2.7474   -6.1875    0.0000 F   0  0  0  0  0  0  0  0  0  0  0  0
    4.3974   -6.1875    0.0000 F   0  0  0  0  0  0  0  0  0  0  0  0
    2.8579   -4.9500    0.0000 C   0  0  0  0  0  0  0  0  0  0  0  0
    2.8579   -4.1250    0.0000 C   0  0  0  0  0  0  0  0  0  0  0  0
    2.1434   -3.7125    0.0000 Cl  0  0  0  0  0  0  0  0  0  0  0  0
    2.1434   -2.8875    0.0000 C   0  0  0  0  0  0  0  0  0  0  0  0
    1.4289   -2.4750    0.0000 C   0  0  0  0  0  0  0  0  0  0  0  0
    1.4289   -1.6500    0.0000 C   0  0  0  0  0  0  0  0  0  0  0  0
    0.7145   -1.2375    0.0000 N   0  3  0  0  0  0  0  0  0  0  0  0
    0.7145   -0.4125    0.0000 O   0  0  0  0  0  0  0  0  0  0  0  0
    0.0000   -1.6500    0.0000 O   0  5  0  0  0  0  0  0  0  0  0  0
  1  2  1  0  0  0  0
  2  3  1  0  0  0  0
  3  4  1  0  0  0  0
  4  5  4  0  0  0  0
  5  6  4  0  0  0  0
  6  7  1  0  0  0  0
  7  8  1  0  0  0  0
  8  9  4  0  0  0  0
  9 10  4  0  0  0  0
 10 11  4  0  0  0  0
 11 12  1  0  0  0  0
 12 13  1  0  0  0  0
 12 14  1  0  0  0  0
 12 15  1  0  0  0  0
 11 16  4  0  0  0  0
 16 17  4  0  0  0  0
  8 17  4  0  0  0  0
 17 18  1  0  0  0  0
  6 19  4  0  0  0  0
 19 20  4  0  0  0  0
 20 21  4  0  0  0  0
  4 21  4  0  0  0  0
 21 22  1  0  0  0  0
 22 23  2  0  0  0  0
 22 24  1  0  0  0  0
M  CHG  2  22   1  24  -1
M  END
> <activity>
59.8

> <InChiKey>
OQMBBFQZGJFLBU-UHFFFAOYSA-N

$$$$

  Mrv2220 08292413132D          

 18 19  0  0  0  0            999 V2000
    2.1434   -0.4125    0.0000 Cl  0  0  0  0  0  0  0  0  0  0  0  0
    2.1434   -1.2375    0.0000 C   0  0  0  0  0  0  0  0  0  0  0  0
    2.8579   -1.6500    0.0000 C   0  0  0  0  0  0  0  0  0  0  0  0
    2.8579   -2.4750    0.0000 C   0  0  0  0  0  0  0  0  0  0  0  0
    2.1434   -2.8875    0.0000 C   0  0  0  0  0  0  0  0  0  0  0  0
    2.1434   -3.7125    0.0000 C   0  0  0  0  0  0  0  0  0  0  0  0
    1.4289   -4.1250    0.0000 C   0  0  0  0  0  0  0  0  0  0  0  0
    1.4289   -4.9500    0.0000 C   0  0  0  0  0  0  0  0  0  0  0  0
    0.7145   -5.3625    0.0000 C   0  0  0  0  0  0  0  0  0  0  0  0
   -0.0000   -4.9500    0.0000 C   0  0  0  0  0  0  0  0  0  0  0  0
   -0.7145   -5.3625    0.0000 Cl  0  0  0  0  0  0  0  0  0  0  0  0
    0.0000   -4.1250    0.0000 C   0  0  0  0  0  0  0  0  0  0  0  0
    0.7145   -3.7125    0.0000 C   0  0  0  0  0  0  0  0  0  0  0  0
    2.8579   -4.1250    0.0000 C   0  0  0  0  0  0  0  0  0  0  0  0
    2.8579   -4.9500    0.0000 Cl  0  0  0  0  0  0  0  0  0  0  0  0
    3.5724   -3.7125    0.0000 Cl  0  0  0  0  0  0  0  0  0  0  0  0
    1.4289   -2.4750    0.0000 C   0  0  0  0  0  0  0  0  0  0  0  0
    1.4289   -1.6500    0.0000 C   0  0  0  0  0  0  0  0  0  0  0  0
  1  2  1  0  0  0  0
  2  3  4  0  0  0  0
  3  4  4  0  0  0  0
  4  5  4  0  0  0  0
  5  6  1  0  0  0  0
  6  7  1  0  0  0  0
  7  8  4  0  0  0  0
  8  9  4  0  0  0  0
  9 10  4  0  0  0  0
 10 11  1  0  0  0  0
 10 12  4  0  0  0  0
 12 13  4  0  0  0  0
  7 13  4  0  0  0  0
  6 14  1  0  0  0  0
 14 15  1  0  0  0  0
 14 16  1  0  0  0  0
  5 17  4  0  0  0  0
 17 18  4  0  0  0  0
  2 18  4  0  0  0  0
M  END
> <activity>
19.9

> <InChiKey>
AHJKRLASYNVKDZ-UHFFFAOYSA-N

$$$$

  Mrv2220 08292413132D          

 18 19  0  0  0  0            999 V2000
    1.4289    0.8250    0.0000 Cl  0  0  0  0  0  0  0  0  0  0  0  0
    1.4289    0.0000    0.0000 C   0  0  0  0  0  0  0  0  0  0  0  0
    0.7145   -0.4125    0.0000 Cl  0  0  0  0  0  0  0  0  0  0  0  0
    2.1434   -0.4125    0.0000 C   0  0  0  0  0  0  0  0  0  0  0  0
    2.1434   -1.2375    0.0000 C   0  0  0  0  0  0  0  0  0  0  0  0
    2.8579   -1.6500    0.0000 C   0  0  0  0  0  0  0  0  0  0  0  0
    2.8579   -2.4750    0.0000 C   0  0  0  0  0  0  0  0  0  0  0  0
    2.1434   -2.8875    0.0000 C   0  0  0  0  0  0  0  0  0  0  0  0
    2.1434   -3.7125    0.0000 Cl  0  0  0  0  0  0  0  0  0  0  0  0
    1.4289   -2.4750    0.0000 C   0  0  0  0  0  0  0  0  0  0  0  0
    1.4289   -1.6500    0.0000 C   0  0  0  0  0  0  0  0  0  0  0  0
    2.8579    0.0000    0.0000 C   0  0  0  0  0  0  0  0  0  0  0  0
    2.8579    0.8250    0.0000 C   0  0  0  0  0  0  0  0  0  0  0  0
    3.5724    1.2375    0.0000 C   0  0  0  0  0  0  0  0  0  0  0  0
    4.2868    0.8250    0.0000 C   0  0  0  0  0  0  0  0  0  0  0  0
    5.0013    1.2375    0.0000 Cl  0  0  0  0  0  0  0  0  0  0  0  0
    4.2868    0.0000    0.0000 C   0  0  0  0  0  0  0  0  0  0  0  0
    3.5724   -0.4125    0.0000 C   0  0  0  0  0  0  0  0  0  0  0  0
  1  2  1  0  0  0  0
  2  3  1  0  0  0  0
  2  4  2  0  0  0  0
  4  5  1  0  0  0  0
  5  6  4  0  0  0  0
  6  7  4  0  0  0  0
  7  8  4  0  0  0  0
  8  9  1  0  0  0  0
  8 10  4  0  0  0  0
 10 11  4  0  0  0  0
  5 11  4  0  0  0  0
  4 12  1  0  0  0  0
 12 13  4  0  0  0  0
 13 14  4  0  0  0  0
 14 15  4  0  0  0  0
 15 16  1  0  0  0  0
 15 17  4  0  0  0  0
 17 18  4  0  0  0  0
 12 18  4  0  0  0  0
M  END
> <activity>
23.8

> <InChiKey>
UCNVFOCBFJOQAL-UHFFFAOYSA-N

$$$$

  Mrv2220 08292413132D          

 20 21  0  0  0  0            999 V2000
    0.6078    0.2277    0.0000 C   0  0  0  0  0  0  0  0  0  0  0  0
    1.3222    0.6402    0.0000 C   0  0  0  0  0  0  0  0  0  0  0  0
    1.7347   -0.0743    0.0000 C   0  0  0  0  0  0  0  0  0  0  0  0
    0.9097    1.3547    0.0000 C   0  0  0  0  0  0  0  0  0  0  0  0
    2.0367    1.0527    0.0000 C   0  0  0  0  0  0  0  0  0  0  0  0
    2.0367    1.8777    0.0000 O   0  0  0  0  0  0  0  0  0  0  0  0
    2.7512    0.6402    0.0000 C   0  0  0  0  0  0  0  0  0  0  0  0
    3.4656    1.0527    0.0000 C   0  0  0  0  0  0  0  0  0  0  0  0
    4.1801    0.6402    0.0000 C   0  0  0  0  0  0  0  0  0  0  0  0
    4.8946    1.0527    0.0000 C   0  0  0  0  0  0  0  0  0  0  0  0
    5.6091    0.6402    0.0000 C   0  0  0  0  0  0  0  0  0  0  0  0
    5.6091   -0.1848    0.0000 C   0  0  0  0  0  0  0  0  0  0  0  0
    6.3235   -0.5973    0.0000 Cl  0  0  0  0  0  0  0  0  0  0  0  0
    4.8946   -0.5973    0.0000 C   0  0  0  0  0  0  0  0  0  0  0  0
    4.1801   -0.1848    0.0000 C   0  0  0  0  0  0  0  0  0  0  0  0
    2.7512   -0.1848    0.0000 N   0  0  0  0  0  0  0  0  0  0  0  0
    3.4186   -0.6697    0.0000 C   0  0  0  0  0  0  0  0  0  0  0  0
    3.1637   -1.4544    0.0000 N   0  0  0  0  0  0  0  0  0  0  0  0
    2.3387   -1.4544    0.0000 C   0  0  0  0  0  0  0  0  0  0  0  0
    2.0837   -0.6697    0.0000 N   0  0  0  0  0  0  0  0  0  0  0  0
  1  2  1  0  0  0  0
  2  3  1  0  0  0  0
  2  4  1  0  0  0  0
  2  5  1  0  0  0  0
  5  6  1  0  0  0  0
  5  7  1  0  0  0  0
  7  8  1  0  0  0  0
  8  9  1  0  0  0  0
  9 10  4  0  0  0  0
 10 11  4  0  0  0  0
 11 12  4  0  0  0  0
 12 13  1  0  0  0  0
 12 14  4  0  0  0  0
 14 15  4  0  0  0  0
  9 15  4  0  0  0  0
  7 16  1  0  0  0  0
 16 17  4  0  0  0  0
 17 18  4  0  0  0  0
 18 19  4  0  0  0  0
 19 20  4  0  0  0  0
 16 20  4  0  0  0  0
M  END
> <activity>
30.4

> <InChiKey>
RMOGWMIKYWRTKW-UHFFFAOYSA-N

$$$$

  Mrv2220 08292413132D          

 18 18  0  0  0  0            999 V2000
   -1.4289    4.1250    0.0000 C   0  0  0  0  0  0  0  0  0  0  0  0
   -0.7145    3.7125    0.0000 C   0  0  0  0  0  0  0  0  0  0  0  0
   -0.7145    2.8875    0.0000 O   0  0  0  0  0  0  0  0  0  0  0  0
    0.0000    2.4750    0.0000 P   0  0  0  0  0  0  0  0  0  0  0  0
   -0.4125    1.7605    0.0000 O   0  0  0  0  0  0  0  0  0  0  0  0
    0.4125    3.1895    0.0000 O   0  0  0  0  0  0  0  0  0  0  0  0
    1.2375    3.1895    0.0000 C   0  0  0  0  0  0  0  0  0  0  0  0
    1.6500    2.4750    0.0000 C   0  0  0  0  0  0  0  0  0  0  0  0
    0.7145    2.0625    0.0000 O   0  0  0  0  0  0  0  0  0  0  0  0
    0.7145    1.2375    0.0000 C   0  0  0  0  0  0  0  0  0  0  0  0
    1.4289    0.8250    0.0000 C   0  0  0  0  0  0  0  0  0  0  0  0
    1.4289   -0.0000    0.0000 C   0  0  0  0  0  0  0  0  0  0  0  0
    0.7145   -0.4125    0.0000 C   0  0  0  0  0  0  0  0  0  0  0  0
    0.7145   -1.2375    0.0000 N   0  3  0  0  0  0  0  0  0  0  0  0
    1.4289   -1.6500    0.0000 O   0  0  0  0  0  0  0  0  0  0  0  0
   -0.0000   -1.6500    0.0000 O   0  5  0  0  0  0  0  0  0  0  0  0
    0.0000    0.0000    0.0000 C   0  0  0  0  0  0  0  0  0  0  0  0
    0.0000    0.8250    0.0000 C   0  0  0  0  0  0  0  0  0  0  0  0
  1  2  1  0  0  0  0
  2  3  1  0  0  0  0
  3  4  1  0  0  0  0
  4  5  2  0  0  0  0
  4  6  1  0  0  0  0
  6  7  1  0  0  0  0
  7  8  1  0  0  0  0
  4  9  1  0  0  0  0
  9 10  1  0  0  0  0
 10 11  4  0  0  0  0
 11 12  4  0  0  0  0
 12 13  4  0  0  0  0
 13 14  1  0  0  0  0
 14 15  2  0  0  0  0
 14 16  1  0  0  0  0
 13 17  4  0  0  0  0
 17 18  4  0  0  0  0
 10 18  4  0  0  0  0
M  CHG  2  14   1  16  -1
M  END
> <activity>
98.8

> <InChiKey>
WYMSBXTXOHUIGT-UHFFFAOYSA-N

$$$$

  Mrv2220 08292413132D          

 18 18  0  0  0  0            999 V2000
   -1.4289    4.1250    0.0000 C   0  0  0  0  0  0  0  0  0  0  0  0
   -0.7145    3.7125    0.0000 C   0  0  0  0  0  0  0  0  0  0  0  0
   -0.7145    2.8875    0.0000 O   0  0  0  0  0  0  0  0  0  0  0  0
    0.0000    2.4750    0.0000 P   0  0  0  0  0  0  0  0  0  0  0  0
   -0.4125    1.7605    0.0000 S   0  0  0  0  0  0  0  0  0  0  0  0
    0.4125    3.1895    0.0000 O   0  0  0  0  0  0  0  0  0  0  0  0
    1.2375    3.1895    0.0000 C   0  0  0  0  0  0  0  0  0  0  0  0
    1.6500    2.4750    0.0000 C   0  0  0  0  0  0  0  0  0  0  0  0
    0.7145    2.0625    0.0000 O   0  0  0  0  0  0  0  0  0  0  0  0
    0.7145    1.2375    0.0000 C   0  0  0  0  0  0  0  0  0  0  0  0
    1.4289    0.8250    0.0000 C   0  0  0  0  0  0  0  0  0  0  0  0
    1.4289   -0.0000    0.0000 C   0  0  0  0  0  0  0  0  0  0  0  0
    0.7145   -0.4125    0.0000 C   0  0  0  0  0  0  0  0  0  0  0  0
    0.7145   -1.2375    0.0000 N   0  3  0  0  0  0  0  0  0  0  0  0
    1.4289   -1.6500    0.0000 O   0  0  0  0  0  0  0  0  0  0  0  0
   -0.0000   -1.6500    0.0000 O   0  5  0  0  0  0  0  0  0  0  0  0
    0.0000    0.0000    0.0000 C   0  0  0  0  0  0  0  0  0  0  0  0
    0.0000    0.8250    0.0000 C   0  0  0  0  0  0  0  0  0  0  0  0
  1  2  1  0  0  0  0
  2  3  1  0  0  0  0
  3  4  1  0  0  0  0
  4  5  2  0  0  0  0
  4  6  1  0  0  0  0
  6  7  1  0  0  0  0
  7  8  1  0  0  0  0
  4  9  1  0  0  0  0
  9 10  1  0  0  0  0
 10 11  4  0  0  0  0
 11 12  4  0  0  0  0
 12 13  4  0  0  0  0
 13 14  1  0  0  0  0
 14 15  2  0  0  0  0
 14 16  1  0  0  0  0
 13 17  4  0  0  0  0
 17 18  4  0  0  0  0
 10 18  4  0  0  0  0
M  CHG  2  14   1  16  -1
M  END
> <activity>
84.1

> <InChiKey>
LCCNCVORNKJIRZ-UHFFFAOYSA-N

$$$$

  Mrv2220 08292413132D          

 20 20  0  0  0  0            999 V2000
    2.8579    2.4750    0.0000 C   0  0  0  0  0  0  0  0  0  0  0  0
    2.1434    2.0625    0.0000 C   0  0  0  0  0  0  0  0  0  0  0  0
    1.4289    2.4750    0.0000 C   0  0  0  0  0  0  0  0  0  0  0  0
    1.4289    3.3000    0.0000 C   0  0  0  0  0  0  0  0  0  0  0  0
    0.7145    3.7125    0.0000 C   0  0  0  0  0  0  0  0  0  0  0  0
    0.7145    2.0625    0.0000 N   0  0  0  0  0  0  0  0  0  0  0  0
    0.7145    1.2375    0.0000 C   0  0  0  0  0  0  0  0  0  0  0  0
    1.4289    0.8250    0.0000 C   0  0  0  0  0  0  0  0  0  0  0  0
    2.1434    1.2375    0.0000 N   0  3  0  0  0  0  0  0  0  0  0  0
    2.8579    0.8250    0.0000 O   0  0  0  0  0  0  0  0  0  0  0  0
    2.6283    1.9049    0.0000 O   0  5  0  0  0  0  0  0  0  0  0  0
    1.4289   -0.0000    0.0000 C   0  0  0  0  0  0  0  0  0  0  0  0
    0.7145   -0.4125    0.0000 C   0  0  0  0  0  0  0  0  0  0  0  0
    0.7145   -1.2375    0.0000 C   0  0  0  0  0  0  0  0  0  0  0  0
    0.0000    0.0000    0.0000 C   0  0  0  0  0  0  0  0  0  0  0  0
   -0.7145   -0.4125    0.0000 C   0  0  0  0  0  0  0  0  0  0  0  0
    0.0000    0.8250    0.0000 C   0  0  0  0  0  0  0  0  0  0  0  0
   -0.7145    1.2375    0.0000 N   0  3  0  0  0  0  0  0  0  0  0  0
   -0.7145    2.0625    0.0000 O   0  0  0  0  0  0  0  0  0  0  0  0
   -1.4289    0.8250    0.0000 O   0  5  0  0  0  0  0  0  0  0  0  0
  1  2  1  0  0  0  0
  2  3  1  0  0  0  0
  3  4  1  0  0  0  0
  4  5  1  0  0  0  0
  3  6  1  0  0  0  0
  6  7  1  0  0  0  0
  7  8  4  0  0  0  0
  8  9  1  0  0  0  0
  9 10  2  0  0  0  0
  9 11  1  0  0  0  0
  8 12  4  0  0  0  0
 12 13  4  0  0  0  0
 13 14  1  0  0  0  0
 13 15  4  0  0  0  0
 15 16  1  0  0  0  0
 15 17  4  0  0  0  0
  7 17  4  0  0  0  0
 17 18  1  0  0  0  0
 18 19  2  0  0  0  0
 18 20  1  0  0  0  0
M  CHG  4   9   1  11  -1  18   1  20  -1
M  END
> <activity>
105.0

> <InChiKey>
CHIFOSRWCNZCFN-UHFFFAOYSA-N

$$$$

  Mrv2220 08292413132D          

 32 34  0  0  0  0            999 V2000
    3.9934    2.4750    0.0000 C   0  0  0  0  0  0  0  0  0  0  0  0
    3.2789    2.0625    0.0000 O   0  0  0  0  0  0  0  0  0  0  0  0
    3.2789    1.2375    0.0000 C   0  0  0  0  0  0  0  0  0  0  0  0
    3.9934    0.8250    0.0000 C   0  0  0  0  0  0  0  0  0  0  0  0
    3.9934    0.0000    0.0000 N   0  0  0  0  0  0  0  0  0  0  0  0
    3.2789   -0.4125    0.0000 C   0  0  0  0  0  0  0  0  0  0  0  0
    3.2789   -1.2375    0.0000 O   0  0  0  0  0  0  0  0  0  0  0  0
    3.9934   -1.6500    0.0000 C   0  0  0  0  0  0  0  0  0  0  0  0
    2.5645    0.0000    0.0000 N   0  0  0  0  0  0  0  0  0  0  0  0
    1.7798   -0.2549    0.0000 N   0  0  0  0  0  0  0  0  0  0  0  0
    1.2949    0.4125    0.0000 C   0  0  0  0  0  0  0  0  0  0  0  0
    0.4699    0.4125    0.0000 N   0  0  0  0  0  0  0  0  0  0  0  0
    0.0574    1.1270    0.0000 S   0  0  0  0  0  0  0  0  0  0  0  0
    0.7719    1.5395    0.0000 O   0  0  0  0  0  0  0  0  0  0  0  0
   -0.6571    0.7145    0.0000 O   0  0  0  0  0  0  0  0  0  0  0  0
   -0.3551    1.8414    0.0000 C   0  0  0  0  0  0  0  0  0  0  0  0
   -1.1801    1.8414    0.0000 C   0  0  0  0  0  0  0  0  0  0  0  0
   -1.5926    1.1270    0.0000 O   0  0  0  0  0  0  0  0  0  0  0  0
   -2.4176    1.1270    0.0000 C   0  0  0  0  0  0  0  0  0  0  0  0
   -2.8301    1.8414    0.0000 C   0  0  0  0  0  0  0  0  0  0  0  0
   -2.4176    2.5559    0.0000 F   0  0  0  0  0  0  0  0  0  0  0  0
   -3.6551    1.8414    0.0000 F   0  0  0  0  0  0  0  0  0  0  0  0
   -1.5926    2.5559    0.0000 C   0  0  0  0  0  0  0  0  0  0  0  0
   -1.1801    3.2704    0.0000 C   0  0  0  0  0  0  0  0  0  0  0  0
   -0.3551    3.2704    0.0000 C   0  0  0  0  0  0  0  0  0  0  0  0
    0.0574    2.5559    0.0000 C   0  0  0  0  0  0  0  0  0  0  0  0
    0.8824    2.5559    0.0000 C   0  0  0  0  0  0  0  0  0  0  0  0
    1.7074    2.5559    0.0000 F   0  0  0  0  0  0  0  0  0  0  0  0
    1.1374    1.7713    0.0000 F   0  0  0  0  0  0  0  0  0  0  0  0
    0.8824    3.3809    0.0000 F   0  0  0  0  0  0  0  0  0  0  0  0
    1.7798    1.0799    0.0000 N   0  0  0  0  0  0  0  0  0  0  0  0
    2.5645    0.8250    0.0000 C   0  0  0  0  0  0  0  0  0  0  0  0
  1  2  1  0  0  0  0
  2  3  1  0  0  0  0
  3  4  4  0  0  0  0
  4  5  4  0  0  0  0
  5  6  4  0  0  0  0
  6  7  1  0  0  0  0
  7  8  1  0  0  0  0
  6  9  4  0  0  0  0
  9 10  4  0  0  0  0
 10 11  4  0  0  0  0
 11 12  1  0  0  0  0
 12 13  1  0  0  0  0
 13 14  2  0  0  0  0
 13 15  2  0  0  0  0
 13 16  1  0  0  0  0
 16 17  4  0  0  0  0
 17 18  1  0  0  0  0
 18 19  1  0  0  0  0
 19 20  1  0  0  0  0
 20 21  1  0  0  0  0
 20 22  1  0  0  0  0
 17 23  4  0  0  0  0
 23 24  4  0  0  0  0
 24 25  4  0  0  0  0
 25 26  4  0  0  0  0
 16 26  4  0  0  0  0
 26 27  1  0  0  0  0
 27 28  1  0  0  0  0
 27 29  1  0  0  0  0
 27 30  1  0  0  0  0
 11 31  4  0  0  0  0
 31 32  4  0  0  0  0
  3 32  4  0  0  0  0
  9 32  4  0  0  0  0
M  END
> <activity>
26.5

> <InChiKey>
SYJGKVOENHZYMQ-UHFFFAOYSA-N

$$$$

  Mrv2220 08292413132D          

 14 14  0  0  0  0            999 V2000
    0.0000    2.4750    0.0000 O   0  0  0  0  0  0  0  0  0  0  0  0
    0.7145    2.0625    0.0000 N   0  3  0  0  0  0  0  0  0  0  0  0
    1.4289    2.4750    0.0000 O   0  5  0  0  0  0  0  0  0  0  0  0
    0.7145    1.2375    0.0000 C   0  0  0  0  0  0  0  0  0  0  0  0
    1.4289    0.8250    0.0000 C   0  0  0  0  0  0  0  0  0  0  0  0
    2.1434    1.2375    0.0000 Cl  0  0  0  0  0  0  0  0  0  0  0  0
    1.4289   -0.0000    0.0000 C   0  0  0  0  0  0  0  0  0  0  0  0
    2.1434   -0.4125    0.0000 Cl  0  0  0  0  0  0  0  0  0  0  0  0
    0.7145   -0.4125    0.0000 C   0  0  0  0  0  0  0  0  0  0  0  0
    0.7145   -1.2375    0.0000 Cl  0  0  0  0  0  0  0  0  0  0  0  0
    0.0000    0.0000    0.0000 C   0  0  0  0  0  0  0  0  0  0  0  0
   -0.7145   -0.4125    0.0000 Cl  0  0  0  0  0  0  0  0  0  0  0  0
    0.0000    0.8250    0.0000 C   0  0  0  0  0  0  0  0  0  0  0  0
   -0.7145    1.2375    0.0000 Cl  0  0  0  0  0  0  0  0  0  0  0  0
  1  2  2  0  0  0  0
  2  3  1  0  0  0  0
  2  4  1  0  0  0  0
  4  5  4  0  0  0  0
  5  6  1  0  0  0  0
  5  7  4  0  0  0  0
  7  8  1  0  0  0  0
  7  9  4  0  0  0  0
  9 10  1  0  0  0  0
  9 11  4  0  0  0  0
 11 12  1  0  0  0  0
 11 13  4  0  0  0  0
  4 13  4  0  0  0  0
 13 14  1  0  0  0  0
M  CHG  2   2   1   3  -1
M  END
> <activity>
69.7

> <InChiKey>
LKPLKUMXSAEKID-UHFFFAOYSA-N

$$$$

  Mrv2220 08292413132D          

 15 14  0  0  0  0            999 V2000
    6.7105    4.6993    0.0000 C   0  0  0  0  0  0  0  0  0  0  0  0
    7.4250    4.2868    0.0000 C   0  0  0  0  0  0  0  0  0  0  0  0
    8.1395    4.6993    0.0000 C   0  0  0  0  0  0  0  0  0  0  0  0
    8.8539    4.2868    0.0000 C   0  0  0  0  0  0  0  0  0  0  0  0
    9.5684    4.6993    0.0000 C   0  0  0  0  0  0  0  0  0  0  0  0
   10.2829    4.2868    0.0000 C   0  0  0  0  0  0  0  0  0  0  0  0
   10.9974    4.6993    0.0000 C   0  0  0  0  0  0  0  0  0  0  0  0
   11.7118    4.2868    0.0000 C   0  0  0  0  0  0  0  0  0  0  0  0
   12.4263    4.6993    0.0000 C   0  0  0  0  0  0  0  0  0  0  0  0
   13.1408    4.2868    0.0000 C   0  0  0  0  0  0  0  0  0  0  0  0
   13.8552    4.6993    0.0000 C   0  0  0  0  0  0  0  0  0  0  0  0
   14.5697    4.2868    0.0000 C   0  0  0  0  0  0  0  0  0  0  0  0
   15.2842    4.6993    0.0000 C   0  0  0  0  0  0  0  0  0  0  0  0
   15.9987    4.2868    0.0000 C   0  0  0  0  0  0  0  0  0  0  0  0
   16.7131    4.6993    0.0000 C   0  0  0  0  0  0  0  0  0  0  0  0
  1  2  1  0  0  0  0
  2  3  1  0  0  0  0
  3  4  1  0  0  0  0
  4  5  1  0  0  0  0
  5  6  1  0  0  0  0
  6  7  1  0  0  0  0
  7  8  1  0  0  0  0
  8  9  1  0  0  0  0
  9 10  1  0  0  0  0
 10 11  1  0  0  0  0
 11 12  1  0  0  0  0
 12 13  1  0  0  0  0
 13 14  1  0  0  0  0
 14 15  1  0  0  0  0
M  END
> <activity>
4.7

> <InChiKey>
YCOZIPAWZNQLMR-UHFFFAOYSA-N

$$$$

  Mrv2220 08292413132D          

 21 20  0  0  0  0            999 V2000
    5.3329    0.0000    0.0000 O   0  0  0  0  0  0  0  0  0  0  0  0
    4.6184   -0.4125    0.0000 N   0  3  0  0  0  0  0  0  0  0  0  0
    4.6184   -1.2375    0.0000 O   0  5  0  0  0  0  0  0  0  0  0  0
    3.9039    0.0000    0.0000 O   0  0  0  0  0  0  0  0  0  0  0  0
    3.1895   -0.4125    0.0000 C   0  0  0  0  0  0  0  0  0  0  0  0
    2.4750    0.0000    0.0000 C   0  0  0  0  0  0  0  0  0  0  0  0
    1.7605    0.4125    0.0000 C   0  0  0  0  0  0  0  0  0  0  0  0
    1.7605    1.2375    0.0000 O   0  0  0  0  0  0  0  0  0  0  0  0
    1.0461    1.6500    0.0000 N   0  3  0  0  0  0  0  0  0  0  0  0
    0.3316    1.2375    0.0000 O   0  0  0  0  0  0  0  0  0  0  0  0
    1.0461    2.4750    0.0000 O   0  5  0  0  0  0  0  0  0  0  0  0
    2.8875    0.7145    0.0000 C   0  0  0  0  0  0  0  0  0  0  0  0
    2.4750    1.4289    0.0000 O   0  0  0  0  0  0  0  0  0  0  0  0
    2.8875    2.1434    0.0000 N   0  3  0  0  0  0  0  0  0  0  0  0
    3.7125    2.1434    0.0000 O   0  0  0  0  0  0  0  0  0  0  0  0
    2.4750    2.8579    0.0000 O   0  5  0  0  0  0  0  0  0  0  0  0
    2.0625   -0.7145    0.0000 C   0  0  0  0  0  0  0  0  0  0  0  0
    1.2375   -0.7145    0.0000 O   0  0  0  0  0  0  0  0  0  0  0  0
    0.8250    0.0000    0.0000 N   0  3  0  0  0  0  0  0  0  0  0  0
    1.2375    0.7145    0.0000 O   0  0  0  0  0  0  0  0  0  0  0  0
    0.0000    0.0000    0.0000 O   0  5  0  0  0  0  0  0  0  0  0  0
  1  2  2  0  0  0  0
  2  3  1  0  0  0  0
  2  4  1  0  0  0  0
  4  5  1  0  0  0  0
  5  6  1  0  0  0  0
  6  7  1  0  0  0  0
  7  8  1  0  0  0  0
  8  9  1  0  0  0  0
  9 10  2  0  0  0  0
  9 11  1  0  0  0  0
  6 12  1  0  0  0  0
 12 13  1  0  0  0  0
 13 14  1  0  0  0  0
 14 15  2  0  0  0  0
 14 16  1  0  0  0  0
  6 17  1  0  0  0  0
 17 18  1  0  0  0  0
 18 19  1  0  0  0  0
 19 20  2  0  0  0  0
 19 21  1  0  0  0  0
M  CHG  8   2   1   3  -1   9   1  11  -1  14   1  16  -1  19   1  21  -1
M  END
> <activity>
-0.8

> <InChiKey>
TZRXHJWUDPFEEY-UHFFFAOYSA-N

$$$$

  Mrv2220 08292413132D          

  6  5  0  0  0  0            999 V2000
   -0.1914    0.7145    0.0000 C   0  0  0  0  0  0  0  0  0  0  0  0
    0.5230    1.1270    0.0000 C   0  0  0  0  0  0  0  0  0  0  0  0
    1.2375    0.7145    0.0000 C   0  0  0  0  0  0  0  0  0  0  0  0
    1.9520    1.1270    0.0000 C   0  0  0  0  0  0  0  0  0  0  0  0
    2.6664    0.7145    0.0000 C   0  0  0  0  0  0  0  0  0  0  0  0
    3.3809    1.1270    0.0000 O   0  0  0  0  0  0  0  0  0  0  0  0
  1  2  1  0  0  0  0
  2  3  1  0  0  0  0
  3  4  1  0  0  0  0
  4  5  1  0  0  0  0
  5  6  2  0  0  0  0
M  END
> <activity>
1.2

> <InChiKey>
HGBOYTHUEUWSSQ-UHFFFAOYSA-N

$$$$

  Mrv2220 08292413132D          

 23 24  0  0  0  0            999 V2000
    0.7145   -2.0625    0.0000 O   0  0  0  0  0  0  0  0  0  0  0  0
    0.7145   -1.2375    0.0000 C   0  0  0  0  0  0  0  0  0  0  0  0
    1.4289   -0.8250    0.0000 O   0  0  0  0  0  0  0  0  0  0  0  0
    2.1434   -1.2375    0.0000 C   0  0  0  0  0  0  0  0  0  0  0  0
    2.8579   -0.8250    0.0000 C   0  0  0  0  0  0  0  0  0  0  0  0
    3.5724   -1.2375    0.0000 C   0  0  0  0  0  0  0  0  0  0  0  0
    4.2868   -0.8250    0.0000 C   0  0  0  0  0  0  0  0  0  0  0  0
    5.0013   -1.2375    0.0000 C   0  0  0  0  0  0  0  0  0  0  0  0
    5.7158   -0.8250    0.0000 O   0  0  0  0  0  0  0  0  0  0  0  0
    6.4302   -1.2375    0.0000 C   0  0  0  0  0  0  0  0  0  0  0  0
    6.4302   -2.0625    0.0000 O   0  0  0  0  0  0  0  0  0  0  0  0
    7.1447   -0.8250    0.0000 C   0  0  0  0  0  0  0  0  0  0  0  0
    7.1447    0.0000    0.0000 C   0  0  0  0  0  0  0  0  0  0  0  0
    7.8592    0.4125    0.0000 C   0  0  0  0  0  0  0  0  0  0  0  0
    8.5737    0.0000    0.0000 C   0  0  0  0  0  0  0  0  0  0  0  0
    8.5737   -0.8250    0.0000 C   0  0  0  0  0  0  0  0  0  0  0  0
    7.8592   -1.2375    0.0000 C   0  0  0  0  0  0  0  0  0  0  0  0
    0.0000   -0.8250    0.0000 C   0  0  0  0  0  0  0  0  0  0  0  0
   -0.7145   -1.2375    0.0000 C   0  0  0  0  0  0  0  0  0  0  0  0
   -1.4289   -0.8250    0.0000 C   0  0  0  0  0  0  0  0  0  0  0  0
   -1.4289    0.0000    0.0000 C   0  0  0  0  0  0  0  0  0  0  0  0
   -0.7145    0.4125    0.0000 C   0  0  0  0  0  0  0  0  0  0  0  0
    0.0000    0.0000    0.0000 C   0  0  0  0  0  0  0  0  0  0  0  0
  1  2  2  0  0  0  0
  2  3  1  0  0  0  0
  3  4  1  0  0  0  0
  4  5  1  0  0  0  0
  5  6  1  0  0  0  0
  6  7  1  0  0  0  0
  7  8  1  0  0  0  0
  8  9  1  0  0  0  0
  9 10  1  0  0  0  0
 10 11  2  0  0  0  0
 10 12  1  0  0  0  0
 12 13  4  0  0  0  0
 13 14  4  0  0  0  0
 14 15  4  0  0  0  0
 15 16  4  0  0  0  0
 16 17  4  0  0  0  0
 12 17  4  0  0  0  0
  2 18  1  0  0  0  0
 18 19  4  0  0  0  0
 19 20  4  0  0  0  0
 20 21  4  0  0  0  0
 21 22  4  0  0  0  0
 22 23  4  0  0  0  0
 18 23  4  0  0  0  0
M  END
> <activity>
16.3

> <InChiKey>
UMNVFYKZOXQOLL-UHFFFAOYSA-N

$$$$

  Mrv2220 08292413132D          

  7  6  0  0  0  0            999 V2000
   -0.1914    0.7145    0.0000 C   0  0  0  0  0  0  0  0  0  0  0  0
    0.5230    1.1270    0.0000 C   0  0  0  0  0  0  0  0  0  0  0  0
    1.2375    0.7145    0.0000 C   0  0  0  0  0  0  0  0  0  0  0  0
    1.9520    1.1270    0.0000 C   0  0  0  0  0  0  0  0  0  0  0  0
    2.6664    0.7145    0.0000 C   0  0  0  0  0  0  0  0  0  0  0  0
    3.3809    1.1270    0.0000 O   0  0  0  0  0  0  0  0  0  0  0  0
    2.6664   -0.1105    0.0000 O   0  0  0  0  0  0  0  0  0  0  0  0
  1  2  1  0  0  0  0
  2  3  1  0  0  0  0
  3  4  1  0  0  0  0
  4  5  1  0  0  0  0
  5  6  2  0  0  0  0
  5  7  1  0  0  0  0
M  END
> <activity>
26.3

> <InChiKey>
NQPDZGIKBAWPEJ-UHFFFAOYSA-N

$$$$

  Mrv2220 08292413132D          

  9  8  0  0  0  0            999 V2000
    1.0461    1.4289    0.0000 C   0  0  0  0  0  0  0  0  0  0  0  0
    1.7605    1.8414    0.0000 C   0  0  0  0  0  0  0  0  0  0  0  0
    2.4750    1.4289    0.0000 C   0  0  0  0  0  0  0  0  0  0  0  0
    3.1895    1.8414    0.0000 C   0  0  0  0  0  0  0  0  0  0  0  0
    3.9039    1.4289    0.0000 C   0  0  0  0  0  0  0  0  0  0  0  0
    4.6184    1.8414    0.0000 O   0  0  0  0  0  0  0  0  0  0  0  0
    5.3329    1.4289    0.0000 C   0  0  0  0  0  0  0  0  0  0  0  0
    6.0474    1.8414    0.0000 C   0  0  0  0  0  0  0  0  0  0  0  0
    5.3329    0.6039    0.0000 O   0  0  0  0  0  0  0  0  0  0  0  0
  1  2  1  0  0  0  0
  2  3  1  0  0  0  0
  3  4  1  0  0  0  0
  4  5  1  0  0  0  0
  5  6  1  0  0  0  0
  6  7  1  0  0  0  0
  7  8  1  0  0  0  0
  7  9  2  0  0  0  0
M  END
> <activity>
38.3

> <InChiKey>
PGMYKACGEOXYJE-UHFFFAOYSA-N

$$$$

  Mrv2220 08292413132D          

 14 14  0  0  0  0            999 V2000
    1.4289    3.3000    0.0000 C   0  0  0  0  0  0  0  0  0  0  0  0
    1.4289    2.4750    0.0000 C   0  0  0  0  0  0  0  0  0  0  0  0
    2.1434    2.0625    0.0000 O   0  0  0  0  0  0  0  0  0  0  0  0
    0.7145    2.0625    0.0000 O   0  0  0  0  0  0  0  0  0  0  0  0
    0.7145    1.2375    0.0000 C   0  0  0  0  0  0  0  0  0  0  0  0
    1.4289    0.8250    0.0000 C   0  0  0  0  0  0  0  0  0  0  0  0
    1.4289   -0.0000    0.0000 C   0  0  0  0  0  0  0  0  0  0  0  0
    2.1434   -0.4125    0.0000 C   0  0  0  0  0  0  0  0  0  0  0  0
    0.7145   -0.4125    0.0000 C   0  0  0  0  0  0  0  0  0  0  0  0
    0.0000    0.0000    0.0000 C   0  0  0  0  0  0  0  0  0  0  0  0
    0.0000    0.8250    0.0000 C   0  0  0  0  0  0  0  0  0  0  0  0
   -0.7145    1.2375    0.0000 C   0  0  0  0  0  0  0  0  0  0  0  0
   -0.7145    2.0625    0.0000 C   0  0  0  0  0  0  0  0  0  0  0  0
   -1.4289    0.8250    0.0000 C   0  0  0  0  0  0  0  0  0  0  0  0
  1  2  1  0  0  0  0
  2  3  2  0  0  0  0
  2  4  1  0  0  0  0
  4  5  1  0  0  0  0
  5  6  1  0  0  0  0
  6  7  1  0  0  0  0
  7  8  1  0  0  0  0
  7  9  1  0  0  0  0
  9 10  1  0  0  0  0
 10 11  1  0  0  0  0
  5 11  1  0  0  0  0
 11 12  1  0  0  0  0
 12 13  1  0  0  0  0
 12 14  1  0  0  0  0
M  END
> <activity>
37.8

> <InChiKey>
XHXUANMFYXWVNG-UHFFFAOYSA-N

$$$$

  Mrv2220 08292413132D          

 31 30  0  0  0  0            999 V2000
    0.1105   -7.8375    0.0000 O   0  0  0  0  0  0  0  0  0  0  0  0
    0.8250   -7.4250    0.0000 C   0  0  0  0  0  0  0  0  0  0  0  0
    1.5395   -7.8375    0.0000 O   0  0  0  0  0  0  0  0  0  0  0  0
    0.8250   -6.6000    0.0000 C   0  0  0  0  0  0  0  0  0  0  0  0
    1.6500   -6.6000    0.0000 F   0  0  0  0  0  0  0  0  0  0  0  0
    0.0000   -6.6000    0.0000 F   0  0  0  0  0  0  0  0  0  0  0  0
    0.8250   -5.7750    0.0000 C   0  0  0  0  0  0  0  0  0  0  0  0
    1.6500   -5.7750    0.0000 F   0  0  0  0  0  0  0  0  0  0  0  0
    0.0000   -5.7750    0.0000 F   0  0  0  0  0  0  0  0  0  0  0  0
    0.8250   -4.9500    0.0000 C   0  0  0  0  0  0  0  0  0  0  0  0
    1.6500   -4.9500    0.0000 F   0  0  0  0  0  0  0  0  0  0  0  0
    0.0000   -4.9500    0.0000 F   0  0  0  0  0  0  0  0  0  0  0  0
    0.8250   -4.1250    0.0000 C   0  0  0  0  0  0  0  0  0  0  0  0
    1.6500   -4.1250    0.0000 F   0  0  0  0  0  0  0  0  0  0  0  0
    0.0000   -4.1250    0.0000 F   0  0  0  0  0  0  0  0  0  0  0  0
    0.8250   -3.3000    0.0000 C   0  0  0  0  0  0  0  0  0  0  0  0
    1.6500   -3.3000    0.0000 F   0  0  0  0  0  0  0  0  0  0  0  0
    0.0000   -3.3000    0.0000 F   0  0  0  0  0  0  0  0  0  0  0  0
    0.8250   -2.4750    0.0000 C   0  0  0  0  0  0  0  0  0  0  0  0
    1.6500   -2.4750    0.0000 F   0  0  0  0  0  0  0  0  0  0  0  0
    0.0000   -2.4750    0.0000 F   0  0  0  0  0  0  0  0  0  0  0  0
    0.8250   -1.6500    0.0000 C   0  0  0  0  0  0  0  0  0  0  0  0
    1.6500   -1.6500    0.0000 F   0  0  0  0  0  0  0  0  0  0  0  0
    0.0000   -1.6500    0.0000 F   0  0  0  0  0  0  0  0  0  0  0  0
    0.8250   -0.8250    0.0000 C   0  0  0  0  0  0  0  0  0  0  0  0
    1.6500   -0.8250    0.0000 F   0  0  0  0  0  0  0  0  0  0  0  0
    0.0000   -0.8250    0.0000 F   0  0  0  0  0  0  0  0  0  0  0  0
    0.8250    0.0000    0.0000 C   0  0  0  0  0  0  0  0  0  0  0  0
    0.8250    0.8250    0.0000 F   0  0  0  0  0  0  0  0  0  0  0  0
    1.6500   -0.0000    0.0000 F   0  0  0  0  0  0  0  0  0  0  0  0
    0.0000    0.0000    0.0000 F   0  0  0  0  0  0  0  0  0  0  0  0
  1  2  2  0  0  0  0
  2  3  1  0  0  0  0
  2  4  1  0  0  0  0
  4  5  1  0  0  0  0
  4  6  1  0  0  0  0
  4  7  1  0  0  0  0
  7  8  1  0  0  0  0
  7  9  1  0  0  0  0
  7 10  1  0  0  0  0
 10 11  1  0  0  0  0
 10 12  1  0  0  0  0
 10 13  1  0  0  0  0
 13 14  1  0  0  0  0
 13 15  1  0  0  0  0
 13 16  1  0  0  0  0
 16 17  1  0  0  0  0
 16 18  1  0  0  0  0
 16 19  1  0  0  0  0
 19 20  1  0  0  0  0
 19 21  1  0  0  0  0
 19 22  1  0  0  0  0
 22 23  1  0  0  0  0
 22 24  1  0  0  0  0
 22 25  1  0  0  0  0
 25 26  1  0  0  0  0
 25 27  1  0  0  0  0
 25 28  1  0  0  0  0
 28 29  1  0  0  0  0
 28 30  1  0  0  0  0
 28 31  1  0  0  0  0
M  END
> <activity>
102.9

> <InChiKey>
PCIUEQPBYFRTEM-UHFFFAOYSA-N

$$$$

  Mrv2220 08292413132D          

 22 21  0  0  0  0            999 V2000
    0.1105   -5.3625    0.0000 O   0  0  0  0  0  0  0  0  0  0  0  0
    0.8250   -4.9500    0.0000 C   0  0  0  0  0  0  0  0  0  0  0  0
    1.5395   -5.3625    0.0000 O   0  0  0  0  0  0  0  0  0  0  0  0
    0.8250   -4.1250    0.0000 C   0  0  0  0  0  0  0  0  0  0  0  0
    1.6500   -4.1250    0.0000 F   0  0  0  0  0  0  0  0  0  0  0  0
    0.0000   -4.1250    0.0000 F   0  0  0  0  0  0  0  0  0  0  0  0
    0.8250   -3.3000    0.0000 C   0  0  0  0  0  0  0  0  0  0  0  0
    1.6500   -3.3000    0.0000 F   0  0  0  0  0  0  0  0  0  0  0  0
    0.0000   -3.3000    0.0000 F   0  0  0  0  0  0  0  0  0  0  0  0
    0.8250   -2.4750    0.0000 C   0  0  0  0  0  0  0  0  0  0  0  0
    1.6500   -2.4750    0.0000 F   0  0  0  0  0  0  0  0  0  0  0  0
    0.0000   -2.4750    0.0000 F   0  0  0  0  0  0  0  0  0  0  0  0
    0.8250   -1.6500    0.0000 C   0  0  0  0  0  0  0  0  0  0  0  0
    1.6500   -1.6500    0.0000 F   0  0  0  0  0  0  0  0  0  0  0  0
    0.0000   -1.6500    0.0000 F   0  0  0  0  0  0  0  0  0  0  0  0
    0.8250   -0.8250    0.0000 C   0  0  0  0  0  0  0  0  0  0  0  0
    1.6500   -0.8250    0.0000 F   0  0  0  0  0  0  0  0  0  0  0  0
    0.0000   -0.8250    0.0000 F   0  0  0  0  0  0  0  0  0  0  0  0
    0.8250    0.0000    0.0000 C   0  0  0  0  0  0  0  0  0  0  0  0
    0.8250    0.8250    0.0000 F   0  0  0  0  0  0  0  0  0  0  0  0
    1.6500   -0.0000    0.0000 F   0  0  0  0  0  0  0  0  0  0  0  0
    0.0000    0.0000    0.0000 F   0  0  0  0  0  0  0  0  0  0  0  0
  1  2  2  0  0  0  0
  2  3  1  0  0  0  0
  2  4  1  0  0  0  0
  4  5  1  0  0  0  0
  4  6  1  0  0  0  0
  4  7  1  0  0  0  0
  7  8  1  0  0  0  0
  7  9  1  0  0  0  0
  7 10  1  0  0  0  0
 10 11  1  0  0  0  0
 10 12  1  0  0  0  0
 10 13  1  0  0  0  0
 13 14  1  0  0  0  0
 13 15  1  0  0  0  0
 13 16  1  0  0  0  0
 16 17  1  0  0  0  0
 16 18  1  0  0  0  0
 16 19  1  0  0  0  0
 19 20  1  0  0  0  0
 19 21  1  0  0  0  0
 19 22  1  0  0  0  0
M  END
> <activity>
102.2

> <InChiKey>
ZWBAMYVPMDSJGQ-UHFFFAOYSA-N

$$$$

  Mrv2220 08292413132D          

 19 18  0  0  0  0            999 V2000
    0.1105   -4.5375    0.0000 O   0  0  0  0  0  0  0  0  0  0  0  0
    0.8250   -4.1250    0.0000 C   0  0  0  0  0  0  0  0  0  0  0  0
    1.5395   -4.5375    0.0000 O   0  0  0  0  0  0  0  0  0  0  0  0
    0.8250   -3.3000    0.0000 C   0  0  0  0  0  0  0  0  0  0  0  0
    1.6500   -3.3000    0.0000 F   0  0  0  0  0  0  0  0  0  0  0  0
    0.0000   -3.3000    0.0000 F   0  0  0  0  0  0  0  0  0  0  0  0
    0.8250   -2.4750    0.0000 C   0  0  0  0  0  0  0  0  0  0  0  0
    1.6500   -2.4750    0.0000 F   0  0  0  0  0  0  0  0  0  0  0  0
    0.0000   -2.4750    0.0000 F   0  0  0  0  0  0  0  0  0  0  0  0
    0.8250   -1.6500    0.0000 C   0  0  0  0  0  0  0  0  0  0  0  0
    1.6500   -1.6500    0.0000 F   0  0  0  0  0  0  0  0  0  0  0  0
    0.0000   -1.6500    0.0000 F   0  0  0  0  0  0  0  0  0  0  0  0
    0.8250   -0.8250    0.0000 C   0  0  0  0  0  0  0  0  0  0  0  0
    1.6500   -0.8250    0.0000 F   0  0  0  0  0  0  0  0  0  0  0  0
    0.0000   -0.8250    0.0000 F   0  0  0  0  0  0  0  0  0  0  0  0
    0.8250    0.0000    0.0000 C   0  0  0  0  0  0  0  0  0  0  0  0
    0.8250    0.8250    0.0000 F   0  0  0  0  0  0  0  0  0  0  0  0
    1.6500   -0.0000    0.0000 F   0  0  0  0  0  0  0  0  0  0  0  0
    0.0000    0.0000    0.0000 F   0  0  0  0  0  0  0  0  0  0  0  0
  1  2  2  0  0  0  0
  2  3  1  0  0  0  0
  2  4  1  0  0  0  0
  4  5  1  0  0  0  0
  4  6  1  0  0  0  0
  4  7  1  0  0  0  0
  7  8  1  0  0  0  0
  7  9  1  0  0  0  0
  7 10  1  0  0  0  0
 10 11  1  0  0  0  0
 10 12  1  0  0  0  0
 10 13  1  0  0  0  0
 13 14  1  0  0  0  0
 13 15  1  0  0  0  0
 13 16  1  0  0  0  0
 16 17  1  0  0  0  0
 16 18  1  0  0  0  0
 16 19  1  0  0  0  0
M  END
> <activity>
96.4

> <InChiKey>
PXUULQAPEKKVAH-UHFFFAOYSA-N

$$$$

  Mrv2220 08292413132D          

 28 27  0  0  0  0            999 V2000
    0.1105   -7.0125    0.0000 O   0  0  0  0  0  0  0  0  0  0  0  0
    0.8250   -6.6000    0.0000 C   0  0  0  0  0  0  0  0  0  0  0  0
    1.5395   -7.0125    0.0000 O   0  0  0  0  0  0  0  0  0  0  0  0
    0.8250   -5.7750    0.0000 C   0  0  0  0  0  0  0  0  0  0  0  0
    1.6500   -5.7750    0.0000 F   0  0  0  0  0  0  0  0  0  0  0  0
    0.0000   -5.7750    0.0000 F   0  0  0  0  0  0  0  0  0  0  0  0
    0.8250   -4.9500    0.0000 C   0  0  0  0  0  0  0  0  0  0  0  0
    1.6500   -4.9500    0.0000 F   0  0  0  0  0  0  0  0  0  0  0  0
    0.0000   -4.9500    0.0000 F   0  0  0  0  0  0  0  0  0  0  0  0
    0.8250   -4.1250    0.0000 C   0  0  0  0  0  0  0  0  0  0  0  0
    1.6500   -4.1250    0.0000 F   0  0  0  0  0  0  0  0  0  0  0  0
    0.0000   -4.1250    0.0000 F   0  0  0  0  0  0  0  0  0  0  0  0
    0.8250   -3.3000    0.0000 C   0  0  0  0  0  0  0  0  0  0  0  0
    1.6500   -3.3000    0.0000 F   0  0  0  0  0  0  0  0  0  0  0  0
    0.0000   -3.3000    0.0000 F   0  0  0  0  0  0  0  0  0  0  0  0
    0.8250   -2.4750    0.0000 C   0  0  0  0  0  0  0  0  0  0  0  0
    1.6500   -2.4750    0.0000 F   0  0  0  0  0  0  0  0  0  0  0  0
    0.0000   -2.4750    0.0000 F   0  0  0  0  0  0  0  0  0  0  0  0
    0.8250   -1.6500    0.0000 C   0  0  0  0  0  0  0  0  0  0  0  0
    1.6500   -1.6500    0.0000 F   0  0  0  0  0  0  0  0  0  0  0  0
    0.0000   -1.6500    0.0000 F   0  0  0  0  0  0  0  0  0  0  0  0
    0.8250   -0.8250    0.0000 C   0  0  0  0  0  0  0  0  0  0  0  0
    1.6500   -0.8250    0.0000 F   0  0  0  0  0  0  0  0  0  0  0  0
    0.0000   -0.8250    0.0000 F   0  0  0  0  0  0  0  0  0  0  0  0
    0.8250    0.0000    0.0000 C   0  0  0  0  0  0  0  0  0  0  0  0
    0.8250    0.8250    0.0000 F   0  0  0  0  0  0  0  0  0  0  0  0
    1.6500   -0.0000    0.0000 F   0  0  0  0  0  0  0  0  0  0  0  0
    0.0000    0.0000    0.0000 F   0  0  0  0  0  0  0  0  0  0  0  0
  1  2  2  0  0  0  0
  2  3  1  0  0  0  0
  2  4  1  0  0  0  0
  4  5  1  0  0  0  0
  4  6  1  0  0  0  0
  4  7  1  0  0  0  0
  7  8  1  0  0  0  0
  7  9  1  0  0  0  0
  7 10  1  0  0  0  0
 10 11  1  0  0  0  0
 10 12  1  0  0  0  0
 10 13  1  0  0  0  0
 13 14  1  0  0  0  0
 13 15  1  0  0  0  0
 13 16  1  0  0  0  0
 16 17  1  0  0  0  0
 16 18  1  0  0  0  0
 16 19  1  0  0  0  0
 19 20  1  0  0  0  0
 19 21  1  0  0  0  0
 19 22  1  0  0  0  0
 22 23  1  0  0  0  0
 22 24  1  0  0  0  0
 22 25  1  0  0  0  0
 25 26  1  0  0  0  0
 25 27  1  0  0  0  0
 25 28  1  0  0  0  0
M  END
> <activity>
104.7

> <InChiKey>
UZUFPBIDKMEQEQ-UHFFFAOYSA-N

$$$$

  Mrv2220 08292413132D          

 29 28  0  0  0  0            999 V2000
    0.8250   -7.4250    0.0000 N   0  0  0  0  0  0  0  0  0  0  0  0
    0.8250   -6.6000    0.0000 S   0  0  0  0  0  0  0  0  0  0  0  0
    1.6500   -6.6000    0.0000 O   0  0  0  0  0  0  0  0  0  0  0  0
    0.0000   -6.6000    0.0000 O   0  0  0  0  0  0  0  0  0  0  0  0
    0.8250   -5.7750    0.0000 C   0  0  0  0  0  0  0  0  0  0  0  0
    1.6500   -5.7750    0.0000 F   0  0  0  0  0  0  0  0  0  0  0  0
    0.0000   -5.7750    0.0000 F   0  0  0  0  0  0  0  0  0  0  0  0
    0.8250   -4.9500    0.0000 C   0  0  0  0  0  0  0  0  0  0  0  0
    1.6500   -4.9500    0.0000 F   0  0  0  0  0  0  0  0  0  0  0  0
    0.0000   -4.9500    0.0000 F   0  0  0  0  0  0  0  0  0  0  0  0
    0.8250   -4.1250    0.0000 C   0  0  0  0  0  0  0  0  0  0  0  0
    1.6500   -4.1250    0.0000 F   0  0  0  0  0  0  0  0  0  0  0  0
    0.0000   -4.1250    0.0000 F   0  0  0  0  0  0  0  0  0  0  0  0
    0.8250   -3.3000    0.0000 C   0  0  0  0  0  0  0  0  0  0  0  0
    1.6500   -3.3000    0.0000 F   0  0  0  0  0  0  0  0  0  0  0  0
    0.0000   -3.3000    0.0000 F   0  0  0  0  0  0  0  0  0  0  0  0
    0.8250   -2.4750    0.0000 C   0  0  0  0  0  0  0  0  0  0  0  0
    1.6500   -2.4750    0.0000 F   0  0  0  0  0  0  0  0  0  0  0  0
    0.0000   -2.4750    0.0000 F   0  0  0  0  0  0  0  0  0  0  0  0
    0.8250   -1.6500    0.0000 C   0  0  0  0  0  0  0  0  0  0  0  0
    1.6500   -1.6500    0.0000 F   0  0  0  0  0  0  0  0  0  0  0  0
    0.0000   -1.6500    0.0000 F   0  0  0  0  0  0  0  0  0  0  0  0
    0.8250   -0.8250    0.0000 C   0  0  0  0  0  0  0  0  0  0  0  0
    1.6500   -0.8250    0.0000 F   0  0  0  0  0  0  0  0  0  0  0  0
    0.0000   -0.8250    0.0000 F   0  0  0  0  0  0  0  0  0  0  0  0
    0.8250    0.0000    0.0000 C   0  0  0  0  0  0  0  0  0  0  0  0
    0.8250    0.8250    0.0000 F   0  0  0  0  0  0  0  0  0  0  0  0
    1.6500   -0.0000    0.0000 F   0  0  0  0  0  0  0  0  0  0  0  0
    0.0000    0.0000    0.0000 F   0  0  0  0  0  0  0  0  0  0  0  0
  1  2  1  0  0  0  0
  2  3  2  0  0  0  0
  2  4  2  0  0  0  0
  2  5  1  0  0  0  0
  5  6  1  0  0  0  0
  5  7  1  0  0  0  0
  5  8  1  0  0  0  0
  8  9  1  0  0  0  0
  8 10  1  0  0  0  0
  8 11  1  0  0  0  0
 11 12  1  0  0  0  0
 11 13  1  0  0  0  0
 11 14  1  0  0  0  0
 14 15  1  0  0  0  0
 14 16  1  0  0  0  0
 14 17  1  0  0  0  0
 17 18  1  0  0  0  0
 17 19  1  0  0  0  0
 17 20  1  0  0  0  0
 20 21  1  0  0  0  0
 20 22  1  0  0  0  0
 20 23  1  0  0  0  0
 23 24  1  0  0  0  0
 23 25  1  0  0  0  0
 23 26  1  0  0  0  0
 26 27  1  0  0  0  0
 26 28  1  0  0  0  0
 26 29  1  0  0  0  0
M  END
> <activity>
103.1

> <InChiKey>
RRRXPPIDPYTNJG-UHFFFAOYSA-N

$$$$

  Mrv2220 08292413132D          

 34 33  0  0  0  0            999 V2000
    0.1105   -8.6625    0.0000 O   0  0  0  0  0  0  0  0  0  0  0  0
    0.8250   -8.2500    0.0000 C   0  0  0  0  0  0  0  0  0  0  0  0
    1.5395   -8.6625    0.0000 O   0  0  0  0  0  0  0  0  0  0  0  0
    0.8250   -7.4250    0.0000 C   0  0  0  0  0  0  0  0  0  0  0  0
    1.6500   -7.4250    0.0000 F   0  0  0  0  0  0  0  0  0  0  0  0
    0.0000   -7.4250    0.0000 F   0  0  0  0  0  0  0  0  0  0  0  0
    0.8250   -6.6000    0.0000 C   0  0  0  0  0  0  0  0  0  0  0  0
    1.6500   -6.6000    0.0000 F   0  0  0  0  0  0  0  0  0  0  0  0
    0.0000   -6.6000    0.0000 F   0  0  0  0  0  0  0  0  0  0  0  0
    0.8250   -5.7750    0.0000 C   0  0  0  0  0  0  0  0  0  0  0  0
    1.6500   -5.7750    0.0000 F   0  0  0  0  0  0  0  0  0  0  0  0
    0.0000   -5.7750    0.0000 F   0  0  0  0  0  0  0  0  0  0  0  0
    0.8250   -4.9500    0.0000 C   0  0  0  0  0  0  0  0  0  0  0  0
    1.6500   -4.9500    0.0000 F   0  0  0  0  0  0  0  0  0  0  0  0
    0.0000   -4.9500    0.0000 F   0  0  0  0  0  0  0  0  0  0  0  0
    0.8250   -4.1250    0.0000 C   0  0  0  0  0  0  0  0  0  0  0  0
    1.6500   -4.1250    0.0000 F   0  0  0  0  0  0  0  0  0  0  0  0
    0.0000   -4.1250    0.0000 F   0  0  0  0  0  0  0  0  0  0  0  0
    0.8250   -3.3000    0.0000 C   0  0  0  0  0  0  0  0  0  0  0  0
    1.6500   -3.3000    0.0000 F   0  0  0  0  0  0  0  0  0  0  0  0
    0.0000   -3.3000    0.0000 F   0  0  0  0  0  0  0  0  0  0  0  0
    0.8250   -2.4750    0.0000 C   0  0  0  0  0  0  0  0  0  0  0  0
    1.6500   -2.4750    0.0000 F   0  0  0  0  0  0  0  0  0  0  0  0
    0.0000   -2.4750    0.0000 F   0  0  0  0  0  0  0  0  0  0  0  0
    0.8250   -1.6500    0.0000 C   0  0  0  0  0  0  0  0  0  0  0  0
    1.6500   -1.6500    0.0000 F   0  0  0  0  0  0  0  0  0  0  0  0
    0.0000   -1.6500    0.0000 F   0  0  0  0  0  0  0  0  0  0  0  0
    0.8250   -0.8250    0.0000 C   0  0  0  0  0  0  0  0  0  0  0  0
    1.6500   -0.8250    0.0000 F   0  0  0  0  0  0  0  0  0  0  0  0
    0.0000   -0.8250    0.0000 F   0  0  0  0  0  0  0  0  0  0  0  0
    0.8250    0.0000    0.0000 C   0  0  0  0  0  0  0  0  0  0  0  0
    0.8250    0.8250    0.0000 F   0  0  0  0  0  0  0  0  0  0  0  0
    1.6500   -0.0000    0.0000 F   0  0  0  0  0  0  0  0  0  0  0  0
    0.0000    0.0000    0.0000 F   0  0  0  0  0  0  0  0  0  0  0  0
  1  2  2  0  0  0  0
  2  3  1  0  0  0  0
  2  4  1  0  0  0  0
  4  5  1  0  0  0  0
  4  6  1  0  0  0  0
  4  7  1  0  0  0  0
  7  8  1  0  0  0  0
  7  9  1  0  0  0  0
  7 10  1  0  0  0  0
 10 11  1  0  0  0  0
 10 12  1  0  0  0  0
 10 13  1  0  0  0  0
 13 14  1  0  0  0  0
 13 15  1  0  0  0  0
 13 16  1  0  0  0  0
 16 17  1  0  0  0  0
 16 18  1  0  0  0  0
 16 19  1  0  0  0  0
 19 20  1  0  0  0  0
 19 21  1  0  0  0  0
 19 22  1  0  0  0  0
 22 23  1  0  0  0  0
 22 24  1  0  0  0  0
 22 25  1  0  0  0  0
 25 26  1  0  0  0  0
 25 27  1  0  0  0  0
 25 28  1  0  0  0  0
 28 29  1  0  0  0  0
 28 30  1  0  0  0  0
 28 31  1  0  0  0  0
 31 32  1  0  0  0  0
 31 33  1  0  0  0  0
 31 34  1  0  0  0  0
M  END
> <activity>
101.4

> <InChiKey>
SIDINRCMMRKXGQ-UHFFFAOYSA-N

$$$$

  Mrv2220 08292413132D          

 26 28  0  0  0  0            999 V2000
    6.7603   -0.8815    0.0000 C   0  0  0  0  0  0  0  0  0  0  0  0
    6.1283   -1.4118    0.0000 C   0  0  0  0  0  0  0  0  0  0  0  0
    5.4963   -0.8815    0.0000 C   0  0  0  0  0  0  0  0  0  0  0  0
    6.5408   -2.1263    0.0000 C   0  0  0  0  0  0  0  0  0  0  0  0
    7.2552   -2.5388    0.0000 C   0  0  0  0  0  0  0  0  0  0  0  0
    7.2552   -3.3638    0.0000 C   0  0  0  0  0  0  0  0  0  0  0  0
    7.9697   -3.7763    0.0000 Cl  0  0  0  0  0  0  0  0  0  0  0  0
    6.5408   -3.7763    0.0000 Cl  0  0  0  0  0  0  0  0  0  0  0  0
    5.7158   -2.1263    0.0000 C   0  0  0  0  0  0  0  0  0  0  0  0
    5.0013   -2.5388    0.0000 C   0  0  0  0  0  0  0  0  0  0  0  0
    4.2868   -2.1263    0.0000 O   0  0  0  0  0  0  0  0  0  0  0  0
    5.0013   -3.3638    0.0000 O   0  0  0  0  0  0  0  0  0  0  0  0
    4.2868   -3.7763    0.0000 C   0  0  0  0  0  0  0  0  0  0  0  0
    4.2868   -4.6013    0.0000 C   0  0  0  0  0  0  0  0  0  0  0  0
    5.0013   -5.0138    0.0000 C   0  0  0  0  0  0  0  0  0  0  0  0
    5.0013   -5.8388    0.0000 C   0  0  0  0  0  0  0  0  0  0  0  0
    4.2868   -6.2513    0.0000 C   0  0  0  0  0  0  0  0  0  0  0  0
    3.5724   -5.8388    0.0000 C   0  0  0  0  0  0  0  0  0  0  0  0
    2.8579   -6.2513    0.0000 O   0  0  0  0  0  0  0  0  0  0  0  0
    2.1434   -5.8388    0.0000 C   0  0  0  0  0  0  0  0  0  0  0  0
    1.4289   -6.2513    0.0000 C   0  0  0  0  0  0  0  0  0  0  0  0
    0.7145   -5.8388    0.0000 C   0  0  0  0  0  0  0  0  0  0  0  0
    0.7145   -5.0138    0.0000 C   0  0  0  0  0  0  0  0  0  0  0  0
    1.4289   -4.6013    0.0000 C   0  0  0  0  0  0  0  0  0  0  0  0
    2.1434   -5.0138    0.0000 C   0  0  0  0  0  0  0  0  0  0  0  0
    3.5724   -5.0138    0.0000 C   0  0  0  0  0  0  0  0  0  0  0  0
  1  2  1  0  0  0  0
  2  3  1  0  0  0  0
  2  4  1  0  0  0  0
  4  5  1  0  0  0  0
  5  6  2  0  0  0  0
  6  7  1  0  0  0  0
  6  8  1  0  0  0  0
  4  9  1  0  0  0  0
  2  9  1  0  0  0  0
  9 10  1  0  0  0  0
 10 11  2  0  0  0  0
 10 12  1  0  0  0  0
 12 13  1  0  0  0  0
 13 14  1  0  0  0  0
 14 15  4  0  0  0  0
 15 16  4  0  0  0  0
 16 17  4  0  0  0  0
 17 18  4  0  0  0  0
 18 19  1  0  0  0  0
 19 20  1  0  0  0  0
 20 21  4  0  0  0  0
 21 22  4  0  0  0  0
 22 23  4  0  0  0  0
 23 24  4  0  0  0  0
 24 25  4  0  0  0  0
 20 25  4  0  0  0  0
 18 26  4  0  0  0  0
 14 26  4  0  0  0  0
M  END
> <activity>
30.4

> <InChiKey>
RLLPVAHGXHCWKJ-UHFFFAOYSA-N

$$$$

  Mrv2220 08292413132D          

 24 25  0  0  0  0            999 V2000
    0.0000   -3.3000    0.0000 C   0  0  0  0  0  0  0  0  0  0  0  0
    0.7145   -3.7125    0.0000 O   0  0  0  0  0  0  0  0  0  0  0  0
    0.7145   -4.5375    0.0000 C   0  0  0  0  0  0  0  0  0  0  0  0
    1.4289   -4.9500    0.0000 C   0  0  0  0  0  0  0  0  0  0  0  0
    1.4289   -5.7750    0.0000 C   0  0  0  0  0  0  0  0  0  0  0  0
    0.7145   -6.1875    0.0000 C   0  0  0  0  0  0  0  0  0  0  0  0
    0.7145   -7.0125    0.0000 C   0  0  0  0  0  0  0  0  0  0  0  0
    0.0000   -7.4250    0.0000 C   0  0  0  0  0  0  0  0  0  0  0  0
    0.0000   -8.2500    0.0000 S   0  0  0  0  0  0  0  0  0  0  0  0
   -0.8250   -8.2500    0.0000 O   0  0  0  0  0  0  0  0  0  0  0  0
    0.8250   -8.2500    0.0000 O   0  0  0  0  0  0  0  0  0  0  0  0
    0.0000   -9.0750    0.0000 N   0  0  0  0  0  0  0  0  0  0  0  0
    0.7145   -9.4875    0.0000 C   0  0  0  0  0  0  0  0  0  0  0  0
    1.4289   -9.0750    0.0000 O   0  0  0  0  0  0  0  0  0  0  0  0
    0.7145  -10.3125    0.0000 C   0  0  0  0  0  0  0  0  0  0  0  0
    1.4289  -10.7250    0.0000 C   0  0  0  0  0  0  0  0  0  0  0  0
    1.4289  -11.5500    0.0000 C   0  0  0  0  0  0  0  0  0  0  0  0
    0.7145  -11.9625    0.0000 C   0  0  0  0  0  0  0  0  0  0  0  0
    0.7145  -12.7875    0.0000 C   0  0  0  0  0  0  0  0  0  0  0  0
   -0.0000  -11.5500    0.0000 C   0  0  0  0  0  0  0  0  0  0  0  0
   -0.0000  -10.7250    0.0000 C   0  0  0  0  0  0  0  0  0  0  0  0
   -0.7145  -10.3125    0.0000 Cl  0  0  0  0  0  0  0  0  0  0  0  0
    0.0000   -5.7750    0.0000 C   0  0  0  0  0  0  0  0  0  0  0  0
    0.0000   -4.9500    0.0000 C   0  0  0  0  0  0  0  0  0  0  0  0
  1  2  1  0  0  0  0
  2  3  1  0  0  0  0
  3  4  4  0  0  0  0
  4  5  4  0  0  0  0
  5  6  4  0  0  0  0
  7  6  1  4  0  0  0
  7  8  2  0  0  0  0
  8  9  1  0  0  0  0
  9 10  2  0  0  0  0
  9 11  2  0  0  0  0
  9 12  1  0  0  0  0
 12 13  1  0  0  0  0
 13 14  2  0  0  0  0
 13 15  1  0  0  0  0
 15 16  4  0  0  0  0
 16 17  4  0  0  0  0
 17 18  4  0  0  0  0
 18 19  1  0  0  0  0
 18 20  4  0  0  0  0
 20 21  4  0  0  0  0
 15 21  4  0  0  0  0
 21 22  1  0  0  0  0
  6 23  4  0  0  0  0
 23 24  4  0  0  0  0
  3 24  4  0  0  0  0
M  END
> <activity>
88.8

> <InChiKey>
WGDPLICUMTVYDB-UHFFFAOYSA-N

$$$$

  Mrv2220 08292413132D          

 22 23  0  0  0  0            999 V2000
   -0.7145    1.2375    0.0000 C   0  0  0  0  0  0  0  0  0  0  0  0
   -1.4289    0.8250    0.0000 O   0  0  0  0  0  0  0  0  0  0  0  0
   -1.4289   -0.0000    0.0000 C   0  0  0  0  0  0  0  0  0  0  0  0
   -0.7145   -0.4125    0.0000 O   0  0  0  0  0  0  0  0  0  0  0  0
   -2.1434   -0.4125    0.0000 N   0  0  0  0  0  0  0  0  0  0  0  0
   -2.1434   -1.2375    0.0000 C   0  0  0  0  0  0  0  0  0  0  0  0
   -1.4289   -1.6500    0.0000 C   0  0  0  0  0  0  0  0  0  0  0  0
   -1.4289   -2.4750    0.0000 C   0  0  0  0  0  0  0  0  0  0  0  0
   -2.1434   -2.8875    0.0000 C   0  0  0  0  0  0  0  0  0  0  0  0
   -2.8579   -2.4750    0.0000 C   0  0  0  0  0  0  0  0  0  0  0  0
   -3.5724   -2.8875    0.0000 O   0  0  0  0  0  0  0  0  0  0  0  0
   -4.2868   -2.4750    0.0000 C   0  0  0  0  0  0  0  0  0  0  0  0
   -4.2868   -1.6500    0.0000 O   0  0  0  0  0  0  0  0  0  0  0  0
   -5.0013   -2.8875    0.0000 N   0  0  0  0  0  0  0  0  0  0  0  0
   -5.0013   -3.7125    0.0000 C   0  0  0  0  0  0  0  0  0  0  0  0
   -4.2868   -4.1250    0.0000 C   0  0  0  0  0  0  0  0  0  0  0  0
   -4.2868   -4.9500    0.0000 C   0  0  0  0  0  0  0  0  0  0  0  0
   -5.0013   -5.3625    0.0000 C   0  0  0  0  0  0  0  0  0  0  0  0
   -5.7158   -4.9500    0.0000 C   0  0  0  0  0  0  0  0  0  0  0  0
   -6.4302   -5.3625    0.0000 C   0  0  0  0  0  0  0  0  0  0  0  0
   -5.7158   -4.1250    0.0000 C   0  0  0  0  0  0  0  0  0  0  0  0
   -2.8579   -1.6500    0.0000 C   0  0  0  0  0  0  0  0  0  0  0  0
  1  2  1  0  0  0  0
  2  3  1  0  0  0  0
  3  4  2  0  0  0  0
  3  5  1  0  0  0  0
  5  6  1  0  0  0  0
  6  7  4  0  0  0  0
  7  8  4  0  0  0  0
  8  9  4  0  0  0  0
  9 10  4  0  0  0  0
 10 11  1  0  0  0  0
 11 12  1  0  0  0  0
 12 13  2  0  0  0  0
 12 14  1  0  0  0  0
 14 15  1  0  0  0  0
 15 16  4  0  0  0  0
 16 17  4  0  0  0  0
 17 18  4  0  0  0  0
 18 19  4  0  0  0  0
 19 20  1  0  0  0  0
 19 21  4  0  0  0  0
 15 21  4  0  0  0  0
 10 22  4  0  0  0  0
  6 22  4  0  0  0  0
M  END
> <activity>
40.7

> <InChiKey>
IDOWTHOLJBTAFI-UHFFFAOYSA-N

$$$$

  Mrv2220 08292413132D          

 17 18  0  0  0  0            999 V2000
    0.4323    0.3627    0.0000 C   0  0  0  0  0  0  0  0  0  0  0  0
    0.7145   -0.4125    0.0000 C   0  0  0  0  0  0  0  0  0  0  0  0
    0.1842   -1.0445    0.0000 C   0  0  0  0  0  0  0  0  0  0  0  0
   -0.3461   -0.4125    0.0000 C   0  0  0  0  0  0  0  0  0  0  0  0
   -1.1586   -0.5558    0.0000 C   0  0  0  0  0  0  0  0  0  0  0  0
   -1.6889    0.0762    0.0000 C   0  0  0  0  0  0  0  0  0  0  0  0
   -1.4067    0.8515    0.0000 C   0  0  0  0  0  0  0  0  0  0  0  0
   -0.5943    0.9947    0.0000 C   0  0  0  0  0  0  0  0  0  0  0  0
   -0.0640    0.3627    0.0000 C   0  0  0  0  0  0  0  0  0  0  0  0
    0.8986   -1.4570    0.0000 C   0  0  0  0  0  0  0  0  0  0  0  0
    1.6131   -1.0445    0.0000 O   0  0  0  0  0  0  0  0  0  0  0  0
    0.8986   -2.2820    0.0000 N   0  0  0  0  0  0  0  0  0  0  0  0
    0.1842   -2.6945    0.0000 C   0  0  0  0  0  0  0  0  0  0  0  0
    0.1842   -3.5195    0.0000 O   0  0  0  0  0  0  0  0  0  0  0  0
   -0.5303   -2.2820    0.0000 N   0  0  0  0  0  0  0  0  0  0  0  0
   -0.5303   -1.4570    0.0000 C   0  0  0  0  0  0  0  0  0  0  0  0
   -1.2448   -1.0445    0.0000 O   0  0  0  0  0  0  0  0  0  0  0  0
  1  2  1  0  0  0  0
  2  3  1  0  0  0  0
  3  4  1  0  0  0  0
  4  5  4  0  0  0  0
  5  6  4  0  0  0  0
  6  7  4  0  0  0  0
  7  8  4  0  0  0  0
  8  9  4  0  0  0  0
  4  9  4  0  0  0  0
  3 10  1  0  0  0  0
 10 11  2  0  0  0  0
 10 12  1  0  0  0  0
 12 13  2  0  0  0  0
 13 14  1  0  0  0  0
 13 15  1  0  0  0  0
 15 16  1  0  0  0  0
  3 16  1  0  0  0  0
 16 17  2  0  0  0  0
M  END
> <activity>
7.1

> <InChiKey>
DDBREPKUVSBGFI-UHFFFAOYSA-N

$$$$

  Mrv2220 08292413132D          

 25 28  0  0  0  0            999 V2000
    0.4243   -1.7779    0.0000 O   0  0  0  0  0  0  0  0  0  0  0  0
    1.1387   -1.3654    0.0000 S   0  0  0  0  0  0  0  0  0  0  0  0
    1.4743   -2.1191    0.0000 O   0  0  0  0  0  0  0  0  0  0  0  0
    0.6538   -0.6979    0.0000 O   0  0  0  0  0  0  0  0  0  0  0  0
    1.1387   -0.0305    0.0000 C   0  0  0  0  0  0  0  0  0  0  0  0
    0.4243    0.3820    0.0000 C   0  0  0  0  0  0  0  0  0  0  0  0
   -0.2902   -0.0305    0.0000 C   0  0  0  0  0  0  0  0  0  0  0  0
   -1.0047    0.3820    0.0000 C   0  0  0  0  0  0  0  0  0  0  0  0
   -1.0047    1.2070    0.0000 C   0  0  0  0  0  0  0  0  0  0  0  0
   -1.7192    1.6195    0.0000 O   0  0  0  0  0  0  0  0  0  0  0  0
   -0.2902    1.6195    0.0000 C   0  0  0  0  0  0  0  0  0  0  0  0
    0.4243    1.2070    0.0000 C   0  0  0  0  0  0  0  0  0  0  0  0
    1.4743    0.7232    0.0000 C   0  0  0  0  0  0  0  0  0  0  0  0
    0.9894    1.3906    0.0000 C   0  0  0  0  0  0  0  0  0  0  0  0
    1.3249    2.1443    0.0000 C   0  0  0  0  0  0  0  0  0  0  0  0
    2.1454    2.2305    0.0000 C   0  0  0  0  0  0  0  0  0  0  0  0
    2.4810    2.9842    0.0000 O   0  0  0  0  0  0  0  0  0  0  0  0
    2.6303    1.5631    0.0000 C   0  0  0  0  0  0  0  0  0  0  0  0
    2.2948    0.8094    0.0000 C   0  0  0  0  0  0  0  0  0  0  0  0
    1.9233   -0.2854    0.0000 C   0  0  0  0  0  0  0  0  0  0  0  0
    2.6378    0.1271    0.0000 C   0  0  0  0  0  0  0  0  0  0  0  0
    3.3523   -0.2854    0.0000 C   0  0  0  0  0  0  0  0  0  0  0  0
    3.3523   -1.1104    0.0000 C   0  0  0  0  0  0  0  0  0  0  0  0
    2.6378   -1.5229    0.0000 C   0  0  0  0  0  0  0  0  0  0  0  0
    1.9233   -1.1104    0.0000 C   0  0  0  0  0  0  0  0  0  0  0  0
  1  2  2  0  0  0  0
  2  3  2  0  0  0  0
  2  4  1  0  0  0  0
  4  5  1  0  0  0  0
  5  6  1  0  0  0  0
  6  7  4  0  0  0  0
  7  8  4  0  0  0  0
  8  9  4  0  0  0  0
  9 10  1  0  0  0  0
  9 11  4  0  0  0  0
 11 12  4  0  0  0  0
  6 12  4  0  0  0  0
  5 13  1  0  0  0  0
 13 14  4  0  0  0  0
 14 15  4  0  0  0  0
 15 16  4  0  0  0  0
 16 17  1  0  0  0  0
 16 18  4  0  0  0  0
 18 19  4  0  0  0  0
 13 19  4  0  0  0  0
  5 20  1  0  0  0  0
 20 21  4  0  0  0  0
 21 22  4  0  0  0  0
 22 23  4  0  0  0  0
 23 24  4  0  0  0  0
 24 25  4  0  0  0  0
 20 25  4  0  0  0  0
  2 25  1  0  0  0  0
M  END
> <activity>
103.1

> <InChiKey>
BELBBZDIHDAJOR-UHFFFAOYSA-N

$$$$

  Mrv2220 08292413132D          

 24 27  0  0  0  0            999 V2000
    0.8838   -2.1500    0.0000 O   0  0  0  0  0  0  0  0  0  0  0  0
    1.1387   -1.3654    0.0000 C   0  0  0  0  0  0  0  0  0  0  0  0
    0.6538   -0.6979    0.0000 O   0  0  0  0  0  0  0  0  0  0  0  0
    1.1387   -0.0305    0.0000 C   0  0  0  0  0  0  0  0  0  0  0  0
    0.4243    0.3820    0.0000 C   0  0  0  0  0  0  0  0  0  0  0  0
   -0.2902   -0.0305    0.0000 C   0  0  0  0  0  0  0  0  0  0  0  0
   -1.0047    0.3820    0.0000 C   0  0  0  0  0  0  0  0  0  0  0  0
   -1.0047    1.2070    0.0000 C   0  0  0  0  0  0  0  0  0  0  0  0
   -1.7192    1.6195    0.0000 O   0  0  0  0  0  0  0  0  0  0  0  0
   -0.2902    1.6195    0.0000 C   0  0  0  0  0  0  0  0  0  0  0  0
    0.4243    1.2070    0.0000 C   0  0  0  0  0  0  0  0  0  0  0  0
    1.4743    0.7232    0.0000 C   0  0  0  0  0  0  0  0  0  0  0  0
    0.9894    1.3906    0.0000 C   0  0  0  0  0  0  0  0  0  0  0  0
    1.3249    2.1443    0.0000 C   0  0  0  0  0  0  0  0  0  0  0  0
    2.1454    2.2305    0.0000 C   0  0  0  0  0  0  0  0  0  0  0  0
    2.4810    2.9842    0.0000 O   0  0  0  0  0  0  0  0  0  0  0  0
    2.6303    1.5631    0.0000 C   0  0  0  0  0  0  0  0  0  0  0  0
    2.2948    0.8094    0.0000 C   0  0  0  0  0  0  0  0  0  0  0  0
    1.9233   -0.2854    0.0000 C   0  0  0  0  0  0  0  0  0  0  0  0
    2.6378    0.1271    0.0000 C   0  0  0  0  0  0  0  0  0  0  0  0
    3.3523   -0.2854    0.0000 C   0  0  0  0  0  0  0  0  0  0  0  0
    3.3523   -1.1104    0.0000 C   0  0  0  0  0  0  0  0  0  0  0  0
    2.6378   -1.5229    0.0000 C   0  0  0  0  0  0  0  0  0  0  0  0
    1.9233   -1.1104    0.0000 C   0  0  0  0  0  0  0  0  0  0  0  0
  1  2  2  0  0  0  0
  2  3  1  0  0  0  0
  3  4  1  0  0  0  0
  4  5  1  0  0  0  0
  5  6  4  0  0  0  0
  6  7  4  0  0  0  0
  7  8  4  0  0  0  0
  8  9  1  0  0  0  0
  8 10  4  0  0  0  0
 10 11  4  0  0  0  0
  5 11  4  0  0  0  0
  4 12  1  0  0  0  0
 12 13  4  0  0  0  0
 13 14  4  0  0  0  0
 14 15  4  0  0  0  0
 15 16  1  0  0  0  0
 15 17  4  0  0  0  0
 17 18  4  0  0  0  0
 12 18  4  0  0  0  0
  4 19  1  0  0  0  0
 19 20  4  0  0  0  0
 20 21  4  0  0  0  0
 21 22  4  0  0  0  0
 22 23  4  0  0  0  0
 23 24  4  0  0  0  0
 19 24  4  0  0  0  0
  2 24  1  0  0  0  0
M  END
> <activity>
100.2

> <InChiKey>
KJFMBFZCATUALV-UHFFFAOYSA-N

$$$$

  Mrv2220 08292413132D          

 24 26  0  0  0  0            999 V2000
    0.0000   -0.0000    0.0000 O   0  0  0  0  0  0  0  0  0  0  0  0
   -0.7145   -0.4125    0.0000 C   0  0  0  0  0  0  0  0  0  0  0  0
   -1.0500    0.3412    0.0000 O   0  0  0  0  0  0  0  0  0  0  0  0
   -0.7145   -1.2375    0.0000 C   0  0  0  0  0  0  0  0  0  0  0  0
    0.0000   -1.6500    0.0000 C   0  0  0  0  0  0  0  0  0  0  0  0
    0.0000   -2.4750    0.0000 C   0  0  0  0  0  0  0  0  0  0  0  0
   -0.7145   -2.8875    0.0000 C   0  0  0  0  0  0  0  0  0  0  0  0
   -1.4289   -2.4750    0.0000 C   0  0  0  0  0  0  0  0  0  0  0  0
   -1.4289   -1.6500    0.0000 C   0  0  0  0  0  0  0  0  0  0  0  0
   -2.1434   -1.2375    0.0000 C   0  0  0  0  0  0  0  0  0  0  0  0
   -2.1434   -0.4125    0.0000 C   0  0  0  0  0  0  0  0  0  0  0  0
   -2.8579    0.0000    0.0000 C   0  0  0  0  0  0  0  0  0  0  0  0
   -2.8579    0.8250    0.0000 C   0  0  0  0  0  0  0  0  0  0  0  0
   -2.1434    1.2375    0.0000 C   0  0  0  0  0  0  0  0  0  0  0  0
   -2.1434    2.0625    0.0000 O   0  0  0  0  0  0  0  0  0  0  0  0
   -1.4289    0.8250    0.0000 C   0  0  0  0  0  0  0  0  0  0  0  0
   -1.4289   -0.0000    0.0000 C   0  0  0  0  0  0  0  0  0  0  0  0
   -2.8579   -1.6500    0.0000 C   0  0  0  0  0  0  0  0  0  0  0  0
   -2.8579   -2.4750    0.0000 C   0  0  0  0  0  0  0  0  0  0  0  0
   -3.5724   -2.8875    0.0000 C   0  0  0  0  0  0  0  0  0  0  0  0
   -4.2868   -2.4750    0.0000 C   0  0  0  0  0  0  0  0  0  0  0  0
   -5.0013   -2.8875    0.0000 O   0  0  0  0  0  0  0  0  0  0  0  0
   -4.2868   -1.6500    0.0000 C   0  0  0  0  0  0  0  0  0  0  0  0
   -3.5724   -1.2375    0.0000 C   0  0  0  0  0  0  0  0  0  0  0  0
  1  2  2  0  0  0  0
  2  3  1  0  0  0  0
  2  4  1  0  0  0  0
  4  5  4  0  0  0  0
  5  6  4  0  0  0  0
  6  7  4  0  0  0  0
  7  8  4  0  0  0  0
  8  9  4  0  0  0  0
  4  9  4  0  0  0  0
  9 10  1  0  0  0  0
 10 11  1  0  0  0  0
 11 12  4  0  0  0  0
 12 13  4  0  0  0  0
 13 14  4  0  0  0  0
 14 15  1  0  0  0  0
 14 16  4  0  0  0  0
 16 17  4  0  0  0  0
 11 17  4  0  0  0  0
 10 18  1  0  0  0  0
 18 19  4  0  0  0  0
 19 20  4  0  0  0  0
 20 21  4  0  0  0  0
 21 22  1  0  0  0  0
 21 23  4  0  0  0  0
 23 24  4  0  0  0  0
 18 24  4  0  0  0  0
M  END
> <activity>
97.3

> <InChiKey>
FFFPYJTVNSSLBQ-UHFFFAOYSA-N

$$$$

  Mrv2220 08292413132D          

  9  9  0  0  0  0            999 V2000
    0.0000    2.4750    0.0000 Cl  0  0  0  0  0  0  0  0  0  0  0  0
    0.7145    2.0625    0.0000 P   0  0  0  0  0  0  0  0  0  0  0  0
    1.4289    2.4750    0.0000 Cl  0  0  0  0  0  0  0  0  0  0  0  0
    0.7145    1.2375    0.0000 C   0  0  0  0  0  0  0  0  0  0  0  0
    1.4289    0.8250    0.0000 C   0  0  0  0  0  0  0  0  0  0  0  0
    1.4289   -0.0000    0.0000 C   0  0  0  0  0  0  0  0  0  0  0  0
    0.7145   -0.4125    0.0000 C   0  0  0  0  0  0  0  0  0  0  0  0
    0.0000    0.0000    0.0000 C   0  0  0  0  0  0  0  0  0  0  0  0
    0.0000    0.8250    0.0000 C   0  0  0  0  0  0  0  0  0  0  0  0
  1  2  1  0  0  0  0
  2  3  1  0  0  0  0
  2  4  1  0  0  0  0
  4  5  4  0  0  0  0
  5  6  4  0  0  0  0
  6  7  4  0  0  0  0
  7  8  4  0  0  0  0
  8  9  4  0  0  0  0
  4  9  4  0  0  0  0
M  END
> <activity>
11.2

> <InChiKey>
IMDXZWRLUZPMDH-UHFFFAOYSA-N

$$$$

  Mrv2220 08292413132D          

 16 17  0  0  0  0            999 V2000
    0.0000   -1.6500    0.0000 O   0  0  0  0  0  0  0  0  0  0  0  0
    0.7145   -1.2375    0.0000 C   0  0  0  0  0  0  0  0  0  0  0  0
    1.4289   -1.6500    0.0000 O   0  0  0  0  0  0  0  0  0  0  0  0
    1.4289   -2.4750    0.0000 C   0  0  0  0  0  0  0  0  0  0  0  0
    2.1434   -2.8875    0.0000 C   0  0  0  0  0  0  0  0  0  0  0  0
    2.1434   -3.7125    0.0000 C   0  0  0  0  0  0  0  0  0  0  0  0
    1.4289   -4.1250    0.0000 C   0  0  0  0  0  0  0  0  0  0  0  0
    0.7145   -3.7125    0.0000 C   0  0  0  0  0  0  0  0  0  0  0  0
    0.7145   -2.8875    0.0000 C   0  0  0  0  0  0  0  0  0  0  0  0
    0.7145   -0.4125    0.0000 C   0  0  0  0  0  0  0  0  0  0  0  0
    0.0000    0.0000    0.0000 C   0  0  0  0  0  0  0  0  0  0  0  0
    0.0000    0.8250    0.0000 C   0  0  0  0  0  0  0  0  0  0  0  0
    0.7145    1.2375    0.0000 C   0  0  0  0  0  0  0  0  0  0  0  0
    1.4289    0.8250    0.0000 C   0  0  0  0  0  0  0  0  0  0  0  0
    1.4289    0.0000    0.0000 C   0  0  0  0  0  0  0  0  0  0  0  0
    2.1434   -0.4125    0.0000 O   0  0  0  0  0  0  0  0  0  0  0  0
  1  2  2  0  0  0  0
  2  3  1  0  0  0  0
  3  4  1  0  0  0  0
  4  5  4  0  0  0  0
  5  6  4  0  0  0  0
  6  7  4  0  0  0  0
  7  8  4  0  0  0  0
  8  9  4  0  0  0  0
  4  9  4  0  0  0  0
  2 10  1  0  0  0  0
 10 11  4  0  0  0  0
 11 12  4  0  0  0  0
 12 13  4  0  0  0  0
 13 14  4  0  0  0  0
 14 15  4  0  0  0  0
 10 15  4  0  0  0  0
 15 16  1  0  0  0  0
M  END
> <activity>
96.0

> <InChiKey>
ZQBAKBUEJOMQEX-UHFFFAOYSA-N

$$$$

  Mrv2220 08292413132D          

  9  9  0  0  0  0            999 V2000
    0.0000    3.3000    0.0000 O   0  0  0  0  0  0  0  0  0  0  0  0
    0.0000    2.4750    0.0000 C   0  0  0  0  0  0  0  0  0  0  0  0
    0.7145    2.0625    0.0000 C   0  0  0  0  0  0  0  0  0  0  0  0
    0.7145    1.2375    0.0000 C   0  0  0  0  0  0  0  0  0  0  0  0
    1.4289    0.8250    0.0000 C   0  0  0  0  0  0  0  0  0  0  0  0
    1.4289   -0.0000    0.0000 C   0  0  0  0  0  0  0  0  0  0  0  0
    0.7145   -0.4125    0.0000 C   0  0  0  0  0  0  0  0  0  0  0  0
    0.0000    0.0000    0.0000 C   0  0  0  0  0  0  0  0  0  0  0  0
    0.0000    0.8250    0.0000 C   0  0  0  0  0  0  0  0  0  0  0  0
  1  2  2  0  0  0  0
  2  3  1  0  0  0  0
  3  4  1  0  0  0  0
  4  5  4  0  0  0  0
  5  6  4  0  0  0  0
  6  7  4  0  0  0  0
  7  8  4  0  0  0  0
  8  9  4  0  0  0  0
  4  9  4  0  0  0  0
M  END
> <activity>
55.8

> <InChiKey>
DTUQWGWMVIHBKE-UHFFFAOYSA-N

$$$$

  Mrv2220 08292413132D          

 16 17  0  0  0  0            999 V2000
    0.0000   -1.6500    0.0000 O   0  0  0  0  0  0  0  0  0  0  0  0
    0.7145   -1.2375    0.0000 C   0  0  0  0  0  0  0  0  0  0  0  0
    1.4289   -1.6500    0.0000 O   0  0  0  0  0  0  0  0  0  0  0  0
    1.4289   -2.4750    0.0000 C   0  0  0  0  0  0  0  0  0  0  0  0
    2.1434   -2.8875    0.0000 C   0  0  0  0  0  0  0  0  0  0  0  0
    2.1434   -3.7125    0.0000 C   0  0  0  0  0  0  0  0  0  0  0  0
    1.4289   -4.1250    0.0000 C   0  0  0  0  0  0  0  0  0  0  0  0
    0.7145   -3.7125    0.0000 C   0  0  0  0  0  0  0  0  0  0  0  0
    0.7145   -2.8875    0.0000 C   0  0  0  0  0  0  0  0  0  0  0  0
    0.7145   -0.4125    0.0000 C   0  0  0  0  0  0  0  0  0  0  0  0
    0.0000    0.0000    0.0000 C   0  0  0  0  0  0  0  0  0  0  0  0
    0.0000    0.8250    0.0000 C   0  0  0  0  0  0  0  0  0  0  0  0
    0.7145    1.2375    0.0000 C   0  0  0  0  0  0  0  0  0  0  0  0
    0.7145    2.0625    0.0000 O   0  0  0  0  0  0  0  0  0  0  0  0
    1.4289    0.8250    0.0000 C   0  0  0  0  0  0  0  0  0  0  0  0
    1.4289    0.0000    0.0000 C   0  0  0  0  0  0  0  0  0  0  0  0
  1  2  2  0  0  0  0
  2  3  1  0  0  0  0
  3  4  1  0  0  0  0
  4  5  4  0  0  0  0
  5  6  4  0  0  0  0
  6  7  4  0  0  0  0
  7  8  4  0  0  0  0
  8  9  4  0  0  0  0
  4  9  4  0  0  0  0
  2 10  1  0  0  0  0
 10 11  4  0  0  0  0
 11 12  4  0  0  0  0
 12 13  4  0  0  0  0
 13 14  1  0  0  0  0
 13 15  4  0  0  0  0
 15 16  4  0  0  0  0
 10 16  4  0  0  0  0
M  END
> <activity>
105.3

> <InChiKey>
GJLNWLVPAHNBQN-UHFFFAOYSA-N

$$$$

  Mrv2220 08292413132D          

 13 12  0  0  0  0            999 V2000
    5.3625   -2.1434    0.0000 C   0  0  0  0  0  0  0  0  0  0  0  0
    4.5375   -2.1434    0.0000 C   0  0  0  0  0  0  0  0  0  0  0  0
    4.1250   -1.4289    0.0000 O   0  0  0  0  0  0  0  0  0  0  0  0
    3.3000   -1.4289    0.0000 P   0  0  0  0  0  0  0  0  0  0  0  0
    3.3000   -0.6039    0.0000 S   0  0  0  0  0  0  0  0  0  0  0  0
    3.3000   -2.2539    0.0000 O   0  0  0  0  0  0  0  0  0  0  0  0
    2.5855   -2.6664    0.0000 C   0  0  0  0  0  0  0  0  0  0  0  0
    1.8711   -2.2539    0.0000 C   0  0  0  0  0  0  0  0  0  0  0  0
    2.4750   -1.4289    0.0000 S   0  0  0  0  0  0  0  0  0  0  0  0
    2.0625   -0.7145    0.0000 C   0  0  0  0  0  0  0  0  0  0  0  0
    1.2375   -0.7145    0.0000 S   0  0  0  0  0  0  0  0  0  0  0  0
    0.8250    0.0000    0.0000 C   0  0  0  0  0  0  0  0  0  0  0  0
    0.0000    0.0000    0.0000 C   0  0  0  0  0  0  0  0  0  0  0  0
  1  2  1  0  0  0  0
  2  3  1  0  0  0  0
  3  4  1  0  0  0  0
  4  5  2  0  0  0  0
  4  6  1  0  0  0  0
  6  7  1  0  0  0  0
  7  8  1  0  0  0  0
  4  9  1  0  0  0  0
  9 10  1  0  0  0  0
 10 11  1  0  0  0  0
 11 12  1  0  0  0  0
 12 13  1  0  0  0  0
M  END
> <activity>
79.7

> <InChiKey>
BULVZWIRKLYCBC-UHFFFAOYSA-N

$$$$

  Mrv2220 08292413132D          

 21 22  0  0  0  0            999 V2000
   -1.4950   -4.8469    0.0000 C   0  0  0  0  0  0  0  0  0  0  0  0
   -1.2400   -4.0623    0.0000 C   0  0  0  0  0  0  0  0  0  0  0  0
   -0.4331   -3.8908    0.0000 O   0  0  0  0  0  0  0  0  0  0  0  0
   -0.1781   -3.1062    0.0000 P   0  0  0  0  0  0  0  0  0  0  0  0
    0.6065   -3.3611    0.0000 S   0  0  0  0  0  0  0  0  0  0  0  0
   -0.9628   -2.8512    0.0000 O   0  0  0  0  0  0  0  0  0  0  0  0
   -1.1343   -2.0442    0.0000 C   0  0  0  0  0  0  0  0  0  0  0  0
   -0.5212   -1.4922    0.0000 C   0  0  0  0  0  0  0  0  0  0  0  0
    0.0768   -2.3215    0.0000 S   0  0  0  0  0  0  0  0  0  0  0  0
    0.8838   -2.1500    0.0000 C   0  0  0  0  0  0  0  0  0  0  0  0
    1.1387   -1.3654    0.0000 N   0  0  0  0  0  0  0  0  0  0  0  0
    0.6538   -0.6979    0.0000 C   0  0  0  0  0  0  0  0  0  0  0  0
   -0.1712   -0.6979    0.0000 O   0  0  0  0  0  0  0  0  0  0  0  0
    1.1387   -0.0305    0.0000 O   0  0  0  0  0  0  0  0  0  0  0  0
    1.9233   -0.2854    0.0000 C   0  0  0  0  0  0  0  0  0  0  0  0
    2.6378    0.1271    0.0000 C   0  0  0  0  0  0  0  0  0  0  0  0
    3.3523   -0.2854    0.0000 C   0  0  0  0  0  0  0  0  0  0  0  0
    4.0668    0.1271    0.0000 Cl  0  0  0  0  0  0  0  0  0  0  0  0
    3.3523   -1.1104    0.0000 C   0  0  0  0  0  0  0  0  0  0  0  0
    2.6378   -1.5229    0.0000 C   0  0  0  0  0  0  0  0  0  0  0  0
    1.9233   -1.1104    0.0000 C   0  0  0  0  0  0  0  0  0  0  0  0
  1  2  1  0  0  0  0
  2  3  1  0  0  0  0
  3  4  1  0  0  0  0
  4  5  2  0  0  0  0
  4  6  1  0  0  0  0
  6  7  1  0  0  0  0
  7  8  1  0  0  0  0
  4  9  1  0  0  0  0
  9 10  1  0  0  0  0
 10 11  1  0  0  0  0
 11 12  4  0  0  0  0
 12 13  2  0  0  0  0
 12 14  4  0  0  0  0
 14 15  4  0  0  0  0
 15 16  4  0  0  0  0
 16 17  4  0  0  0  0
 17 18  1  0  0  0  0
 17 19  4  0  0  0  0
 19 20  4  0  0  0  0
 20 21  4  0  0  0  0
 15 21  4  0  0  0  0
 11 21  4  0  0  0  0
M  END
> <activity>
40.2

> <InChiKey>
IOUNQDKNJZEDEP-UHFFFAOYSA-N

$$$$

  Mrv2220 08292413132D          

 19 20  0  0  0  0            999 V2000
   -2.6462   -2.1269    0.0000 C   0  0  0  0  0  0  0  0  0  0  0  0
   -2.2337   -1.4124    0.0000 O   0  0  0  0  0  0  0  0  0  0  0  0
   -1.4087   -1.4124    0.0000 P   0  0  0  0  0  0  0  0  0  0  0  0
   -1.4087   -2.2374    0.0000 S   0  0  0  0  0  0  0  0  0  0  0  0
   -1.4087   -0.5874    0.0000 O   0  0  0  0  0  0  0  0  0  0  0  0
   -0.6942   -0.1749    0.0000 C   0  0  0  0  0  0  0  0  0  0  0  0
   -0.5837   -1.4124    0.0000 S   0  0  0  0  0  0  0  0  0  0  0  0
   -0.1712   -0.6979    0.0000 C   0  0  0  0  0  0  0  0  0  0  0  0
    0.6538   -0.6979    0.0000 N   0  0  0  0  0  0  0  0  0  0  0  0
    1.1387   -0.0305    0.0000 C   0  0  0  0  0  0  0  0  0  0  0  0
    0.8838    0.7541    0.0000 O   0  0  0  0  0  0  0  0  0  0  0  0
    1.9233   -0.2854    0.0000 C   0  0  0  0  0  0  0  0  0  0  0  0
    2.6378    0.1271    0.0000 C   0  0  0  0  0  0  0  0  0  0  0  0
    3.3523   -0.2854    0.0000 C   0  0  0  0  0  0  0  0  0  0  0  0
    3.3523   -1.1104    0.0000 C   0  0  0  0  0  0  0  0  0  0  0  0
    2.6378   -1.5229    0.0000 C   0  0  0  0  0  0  0  0  0  0  0  0
    1.9233   -1.1104    0.0000 C   0  0  0  0  0  0  0  0  0  0  0  0
    1.1387   -1.3654    0.0000 C   0  0  0  0  0  0  0  0  0  0  0  0
    0.8838   -2.1500    0.0000 O   0  0  0  0  0  0  0  0  0  0  0  0
  1  2  1  0  0  0  0
  2  3  1  0  0  0  0
  3  4  2  0  0  0  0
  3  5  1  0  0  0  0
  5  6  1  0  0  0  0
  3  7  1  0  0  0  0
  7  8  1  0  0  0  0
  8  9  1  0  0  0  0
  9 10  1  0  0  0  0
 10 11  2  0  0  0  0
 10 12  1  0  0  0  0
 12 13  4  0  0  0  0
 13 14  4  0  0  0  0
 14 15  4  0  0  0  0
 15 16  4  0  0  0  0
 16 17  4  0  0  0  0
 12 17  4  0  0  0  0
 17 18  1  0  0  0  0
  9 18  1  0  0  0  0
 18 19  2  0  0  0  0
M  END
> <activity>
55.7

> <InChiKey>
LMNZTLDVJIUSHT-UHFFFAOYSA-N

$$$$

  Mrv2220 08292413132D          

  5  4  0  0  0  0            999 V2000
    0.8250   -0.8250    0.0000 O   0  0  0  0  0  0  0  0  0  0  0  0
    0.8250    0.0000    0.0000 P   0  0  0  0  0  0  0  0  0  0  0  0
    0.8250    0.8250    0.0000 O   0  0  0  0  0  0  0  0  0  0  0  0
    1.6500   -0.0000    0.0000 O   0  0  0  0  0  0  0  0  0  0  0  0
    0.0000    0.0000    0.0000 O   0  0  0  0  0  0  0  0  0  0  0  0
  1  2  2  0  0  0  0
  2  3  1  0  0  0  0
  2  4  1  0  0  0  0
  2  5  1  0  0  0  0
M  END
> <activity>
14.6

> <InChiKey>
NBIIXXVUZAFLBC-UHFFFAOYSA-N

$$$$

  Mrv2220 08292413132D          

 19 19  0  0  0  0            999 V2000
    3.5724    5.3625    0.0000 C   0  0  0  0  0  0  0  0  0  0  0  0
    2.8579    4.9500    0.0000 C   0  0  0  0  0  0  0  0  0  0  0  0
    2.8579    4.1250    0.0000 O   0  0  0  0  0  0  0  0  0  0  0  0
    2.1434    3.7125    0.0000 P   0  0  0  0  0  0  0  0  0  0  0  0
    1.7309    4.4270    0.0000 S   0  0  0  0  0  0  0  0  0  0  0  0
    2.5559    2.9980    0.0000 O   0  0  0  0  0  0  0  0  0  0  0  0
    2.1434    2.2836    0.0000 C   0  0  0  0  0  0  0  0  0  0  0  0
    2.5559    1.5691    0.0000 C   0  0  0  0  0  0  0  0  0  0  0  0
    1.4289    3.3000    0.0000 O   0  0  0  0  0  0  0  0  0  0  0  0
    1.4289    2.4750    0.0000 N   0  0  0  0  0  0  0  0  0  0  0  0
    0.7145    2.0625    0.0000 C   0  0  0  0  0  0  0  0  0  0  0  0
    0.0000    2.4750    0.0000 C   0  0  0  0  0  0  0  0  0  0  0  0
   -0.7145    2.8875    0.0000 N   0  0  0  0  0  0  0  0  0  0  0  0
    0.7145    1.2375    0.0000 C   0  0  0  0  0  0  0  0  0  0  0  0
    1.4289    0.8250    0.0000 C   0  0  0  0  0  0  0  0  0  0  0  0
    1.4289   -0.0000    0.0000 C   0  0  0  0  0  0  0  0  0  0  0  0
    0.7145   -0.4125    0.0000 C   0  0  0  0  0  0  0  0  0  0  0  0
    0.0000    0.0000    0.0000 C   0  0  0  0  0  0  0  0  0  0  0  0
    0.0000    0.8250    0.0000 C   0  0  0  0  0  0  0  0  0  0  0  0
  1  2  1  0  0  0  0
  2  3  1  0  0  0  0
  3  4  1  0  0  0  0
  4  5  2  0  0  0  0
  4  6  1  0  0  0  0
  6  7  1  0  0  0  0
  7  8  1  0  0  0  0
  4  9  1  0  0  0  0
 10  9  1  4  0  0  0
 10 11  2  0  0  0  0
 11 12  1  0  0  0  0
 12 13  3  0  0  0  0
 11 14  1  0  0  0  0
 14 15  4  0  0  0  0
 15 16  4  0  0  0  0
 16 17  4  0  0  0  0
 17 18  4  0  0  0  0
 18 19  4  0  0  0  0
 14 19  4  0  0  0  0
M  END
> <activity>
99.2

> <InChiKey>
ATROHALUCMTWTB-UHFFFAOYSA-N

$$$$

  Mrv2220 08292413132D          

 11 12  0  0  0  0            999 V2000
    0.8838   -2.1500    0.0000 O   0  0  0  0  0  0  0  0  0  0  0  0
    1.1387   -1.3654    0.0000 C   0  0  0  0  0  0  0  0  0  0  0  0
    0.6538   -0.6979    0.0000 N   0  0  0  0  0  0  0  0  0  0  0  0
    1.1387   -0.0305    0.0000 C   0  0  0  0  0  0  0  0  0  0  0  0
    0.8838    0.7541    0.0000 O   0  0  0  0  0  0  0  0  0  0  0  0
    1.9233   -0.2854    0.0000 C   0  0  0  0  0  0  0  0  0  0  0  0
    2.6378    0.1271    0.0000 C   0  0  0  0  0  0  0  0  0  0  0  0
    3.3523   -0.2854    0.0000 C   0  0  0  0  0  0  0  0  0  0  0  0
    3.3523   -1.1104    0.0000 C   0  0  0  0  0  0  0  0  0  0  0  0
    2.6378   -1.5229    0.0000 C   0  0  0  0  0  0  0  0  0  0  0  0
    1.9233   -1.1104    0.0000 C   0  0  0  0  0  0  0  0  0  0  0  0
  1  2  2  0  0  0  0
  2  3  1  0  0  0  0
  3  4  1  0  0  0  0
  4  5  2  0  0  0  0
  4  6  1  0  0  0  0
  6  7  4  0  0  0  0
  7  8  4  0  0  0  0
  8  9  4  0  0  0  0
  9 10  4  0  0  0  0
 10 11  4  0  0  0  0
  6 11  4  0  0  0  0
  2 11  1  0  0  0  0
M  END
> <activity>
15.9

> <InChiKey>
XKJCHHZQLQNZHY-UHFFFAOYSA-N

$$$$

  Mrv2220 08292413132D          

 13 13  0  0  0  0            999 V2000
    0.7145    2.0625    0.0000 N   0  0  0  0  0  0  0  0  0  0  0  0
    0.7145    1.2375    0.0000 C   0  0  0  0  0  0  0  0  0  0  0  0
    1.4289    0.8250    0.0000 C   0  0  0  0  0  0  0  0  0  0  0  0
    2.1434    1.2375    0.0000 Cl  0  0  0  0  0  0  0  0  0  0  0  0
    1.4289   -0.0000    0.0000 C   0  0  0  0  0  0  0  0  0  0  0  0
    2.1434   -0.4125    0.0000 Cl  0  0  0  0  0  0  0  0  0  0  0  0
    0.7145   -0.4125    0.0000 N   0  0  0  0  0  0  0  0  0  0  0  0
    0.0000    0.0000    0.0000 C   0  0  0  0  0  0  0  0  0  0  0  0
   -0.7145   -0.4125    0.0000 C   0  0  0  0  0  0  0  0  0  0  0  0
   -0.7145   -1.2375    0.0000 O   0  0  0  0  0  0  0  0  0  0  0  0
   -1.4289    0.0000    0.0000 O   0  0  0  0  0  0  0  0  0  0  0  0
    0.0000    0.8250    0.0000 C   0  0  0  0  0  0  0  0  0  0  0  0
   -0.7145    1.2375    0.0000 Cl  0  0  0  0  0  0  0  0  0  0  0  0
  1  2  1  0  0  0  0
  2  3  4  0  0  0  0
  3  4  1  0  0  0  0
  3  5  4  0  0  0  0
  5  6  1  0  0  0  0
  5  7  4  0  0  0  0
  7  8  4  0  0  0  0
  8  9  1  0  0  0  0
  9 10  2  0  0  0  0
  9 11  1  0  0  0  0
  8 12  4  0  0  0  0
  2 12  4  0  0  0  0
 12 13  1  0  0  0  0
M  END
> <activity>
55.1

> <InChiKey>
NQQVFXUMIDALNH-UHFFFAOYSA-N

$$$$

  Mrv2220 08292413132D          

 25 27  0  0  0  0            999 V2000
    2.2501   10.9527    0.0000 C   0  0  0  0  0  0  0  0  0  0  0  0
    2.9646   10.5402    0.0000 C   0  0  0  0  0  0  0  0  0  0  0  0
    2.9646    9.7152    0.0000 C   0  0  0  0  0  0  0  0  0  0  0  0
    3.6791    9.3027    0.0000 C   0  0  0  0  0  0  0  0  0  0  0  0
    3.6791    8.4777    0.0000 C   0  0  0  0  0  0  0  0  0  0  0  0
    2.9646    8.0652    0.0000 C   0  0  0  0  0  0  0  0  0  0  0  0
    2.9646    7.2402    0.0000 C   0  0  0  0  0  0  0  0  0  0  0  0
    2.2501    6.8277    0.0000 C   0  0  0  0  0  0  0  0  0  0  0  0
    2.2501    6.0027    0.0000 O   0  0  0  0  0  0  0  0  0  0  0  0
    1.5356    5.5902    0.0000 C   0  0  0  0  0  0  0  0  0  0  0  0
    1.5356    4.7652    0.0000 C   0  0  0  0  0  0  0  0  0  0  0  0
    0.8212    4.3527    0.0000 C   0  0  0  0  0  0  0  0  0  0  0  0
    0.1067    4.7652    0.0000 C   0  0  0  0  0  0  0  0  0  0  0  0
   -0.6078    4.3527    0.0000 C   0  0  0  0  0  0  0  0  0  0  0  0
   -0.6078    3.5277    0.0000 C   0  0  0  0  0  0  0  0  0  0  0  0
    0.0597    3.0428    0.0000 S   0  0  0  0  0  0  0  0  0  0  0  0
   -0.1953    2.2581    0.0000 C   0  0  0  0  0  0  0  0  0  0  0  0
    0.2897    1.5907    0.0000 O   0  0  0  0  0  0  0  0  0  0  0  0
   -1.0203    2.2581    0.0000 N   0  0  0  0  0  0  0  0  0  0  0  0
   -1.2752    3.0428    0.0000 C   0  0  0  0  0  0  0  0  0  0  0  0
   -2.0598    3.2977    0.0000 O   0  0  0  0  0  0  0  0  0  0  0  0
    0.1067    5.5902    0.0000 C   0  0  0  0  0  0  0  0  0  0  0  0
    0.8212    6.0027    0.0000 C   0  0  0  0  0  0  0  0  0  0  0  0
    2.2501    8.4777    0.0000 N   0  0  0  0  0  0  0  0  0  0  0  0
    2.2501    9.3027    0.0000 C   0  0  0  0  0  0  0  0  0  0  0  0
  1  2  1  0  0  0  0
  2  3  1  0  0  0  0
  3  4  4  0  0  0  0
  4  5  4  0  0  0  0
  5  6  4  0  0  0  0
  6  7  1  0  0  0  0
  7  8  1  0  0  0  0
  8  9  1  0  0  0  0
  9 10  1  0  0  0  0
 10 11  4  0  0  0  0
 11 12  4  0  0  0  0
 12 13  4  0  0  0  0
 13 14  1  0  0  0  0
 14 15  1  0  0  0  0
 15 16  1  0  0  0  0
 16 17  1  0  0  0  0
 17 18  2  0  0  0  0
 17 19  1  0  0  0  0
 19 20  1  0  0  0  0
 15 20  1  0  0  0  0
 20 21  2  0  0  0  0
 13 22  4  0  0  0  0
 22 23  4  0  0  0  0
 10 23  4  0  0  0  0
  6 24  4  0  0  0  0
 24 25  4  0  0  0  0
  3 25  4  0  0  0  0
M  END
> <activity>
88.7

> <InChiKey>
HYAFETHFCAUJAY-UHFFFAOYSA-N

$$$$

  Mrv2220 08292413132D          

 28 30  0  0  0  0            999 V2000
   -2.1434   -4.5375    0.0000 C   0  0  0  0  0  0  0  0  0  0  0  0
   -1.4289   -4.1250    0.0000 S   0  0  0  0  0  0  0  0  0  0  0  0
   -1.0164   -4.8395    0.0000 O   0  0  0  0  0  0  0  0  0  0  0  0
   -1.8414   -3.4105    0.0000 O   0  0  0  0  0  0  0  0  0  0  0  0
   -0.7145   -3.7125    0.0000 C   0  0  0  0  0  0  0  0  0  0  0  0
   -0.7145   -2.8875    0.0000 C   0  0  0  0  0  0  0  0  0  0  0  0
    0.0000   -2.4750    0.0000 C   0  0  0  0  0  0  0  0  0  0  0  0
    0.7145   -2.8875    0.0000 C   0  0  0  0  0  0  0  0  0  0  0  0
    1.4289   -2.4750    0.0000 C   0  0  0  0  0  0  0  0  0  0  0  0
    1.4289   -1.6500    0.0000 C   0  0  0  0  0  0  0  0  0  0  0  0
    2.1434   -1.2375    0.0000 C   0  0  0  0  0  0  0  0  0  0  0  0
    2.2296   -0.4170    0.0000 C   0  0  0  0  0  0  0  0  0  0  0  0
    3.0366   -0.2455    0.0000 C   0  0  0  0  0  0  0  0  0  0  0  0
    3.4491   -0.9600    0.0000 C   0  0  0  0  0  0  0  0  0  0  0  0
    4.2696   -1.0462    0.0000 O   0  0  0  0  0  0  0  0  0  0  0  0
    2.8971   -1.5731    0.0000 C   0  0  0  0  0  0  0  0  0  0  0  0
    2.1434   -2.8875    0.0000 C   0  0  0  0  0  0  0  0  0  0  0  0
    2.1434   -3.7125    0.0000 O   0  0  0  0  0  0  0  0  0  0  0  0
    2.8579   -2.4750    0.0000 N   0  0  0  0  0  0  0  0  0  0  0  0
    3.5724   -2.8875    0.0000 C   0  0  0  0  0  0  0  0  0  0  0  0
    4.2868   -2.4750    0.0000 C   0  0  0  0  0  0  0  0  0  0  0  0
    5.0013   -2.8875    0.0000 N   0  0  0  0  0  0  0  0  0  0  0  0
    5.0013   -3.7125    0.0000 C   0  0  0  0  0  0  0  0  0  0  0  0
    4.2868   -4.1250    0.0000 C   0  0  0  0  0  0  0  0  0  0  0  0
    3.5724   -3.7125    0.0000 N   0  0  0  0  0  0  0  0  0  0  0  0
    0.7145   -3.7125    0.0000 C   0  0  0  0  0  0  0  0  0  0  0  0
    0.0000   -4.1250    0.0000 C   0  0  0  0  0  0  0  0  0  0  0  0
    0.0000   -4.9500    0.0000 Cl  0  0  0  0  0  0  0  0  0  0  0  0
  1  2  1  0  0  0  0
  2  3  2  0  0  0  0
  2  4  2  0  0  0  0
  2  5  1  0  0  0  0
  5  6  4  0  0  0  0
  6  7  4  0  0  0  0
  7  8  4  0  0  0  0
  8  9  1  0  0  0  0
  9 10  1  0  0  0  0
 10 11  1  0  0  0  0
 11 12  1  0  0  0  0
 12 13  1  0  0  0  0
 13 14  1  0  0  0  0
 14 15  2  0  0  0  0
 14 16  1  0  0  0  0
 11 16  1  0  0  0  0
  9 17  1  0  0  0  0
 17 18  2  0  0  0  0
 17 19  1  0  0  0  0
 19 20  1  0  0  0  0
 20 21  4  0  0  0  0
 21 22  4  0  0  0  0
 22 23  4  0  0  0  0
 23 24  4  0  0  0  0
 24 25  4  0  0  0  0
 20 25  4  0  0  0  0
  8 26  4  0  0  0  0
 26 27  4  0  0  0  0
  5 27  4  0  0  0  0
 27 28  1  0  0  0  0
M  END
> <activity>
8.9

> <InChiKey>
XEANIURBPHCHMG-UHFFFAOYSA-N

$$$$

  Mrv2220 08292413132D          

 17 17  0  0  0  0            999 V2000
    0.7145    2.0625    0.0000 C   0  0  0  0  0  0  0  0  0  0  0  0
    0.7145    1.2375    0.0000 C   0  0  0  0  0  0  0  0  0  0  0  0
    1.4289    0.8250    0.0000 N   0  0  0  0  0  0  0  0  0  0  0  0
    1.4289   -0.0000    0.0000 C   0  0  0  0  0  0  0  0  0  0  0  0
    2.1434   -0.4125    0.0000 N   0  0  0  0  0  0  0  0  0  0  0  0
    2.8579   -0.0000    0.0000 C   0  0  0  0  0  0  0  0  0  0  0  0
    2.1434   -1.2375    0.0000 C   0  0  0  0  0  0  0  0  0  0  0  0
    0.7145   -0.4125    0.0000 N   0  0  0  0  0  0  0  0  0  0  0  0
    0.0000    0.0000    0.0000 C   0  0  0  0  0  0  0  0  0  0  0  0
   -0.7145   -0.4125    0.0000 O   0  0  0  0  0  0  0  0  0  0  0  0
   -0.7145   -1.2375    0.0000 C   0  0  0  0  0  0  0  0  0  0  0  0
   -0.0000   -1.6500    0.0000 O   0  0  0  0  0  0  0  0  0  0  0  0
   -1.4289   -1.6500    0.0000 N   0  0  0  0  0  0  0  0  0  0  0  0
   -1.4289   -2.4750    0.0000 C   0  0  0  0  0  0  0  0  0  0  0  0
   -2.1434   -1.2375    0.0000 C   0  0  0  0  0  0  0  0  0  0  0  0
    0.0000    0.8250    0.0000 C   0  0  0  0  0  0  0  0  0  0  0  0
   -0.7145    1.2375    0.0000 C   0  0  0  0  0  0  0  0  0  0  0  0
  1  2  1  0  0  0  0
  2  3  4  0  0  0  0
  3  4  4  0  0  0  0
  4  5  1  0  0  0  0
  5  6  1  0  0  0  0
  5  7  1  0  0  0  0
  4  8  4  0  0  0  0
  8  9  4  0  0  0  0
  9 10  1  0  0  0  0
 10 11  1  0  0  0  0
 11 12  2  0  0  0  0
 11 13  1  0  0  0  0
 13 14  1  0  0  0  0
 13 15  1  0  0  0  0
  9 16  4  0  0  0  0
  2 16  4  0  0  0  0
 16 17  1  0  0  0  0
M  END
> <activity>
23.3

> <InChiKey>
YFGYUFNIOHWBOB-UHFFFAOYSA-N

$$$$

  Mrv2220 08292413132D          

  4  4  0  0  0  0            999 V2000
    0.2382    1.7138    0.0000 C   0  0  0  0  0  0  0  0  0  0  0  0
    0.2382    0.8888    0.0000 C   0  0  0  0  0  0  0  0  0  0  0  0
    0.6507    0.1743    0.0000 C   0  0  0  0  0  0  0  0  0  0  0  0
   -0.1743    0.1743    0.0000 O   0  0  0  0  0  0  0  0  0  0  0  0
  1  2  1  0  0  0  0
  2  3  1  0  0  0  0
  3  4  1  0  0  0  0
  2  4  1  0  0  0  0
M  END
> <activity>
13.7

> <InChiKey>
GOOHAUXETOMSMM-UHFFFAOYSA-N

$$$$

  Mrv2220 08292413132D          

 23 22  0  0  0  0            999 V2000
    2.6151    9.7599    0.0000 C   0  0  0  0  0  0  0  0  0  0  0  0
    2.6151    8.9349    0.0000 C   0  0  0  0  0  0  0  0  0  0  0  0
    3.3296    8.5224    0.0000 C   0  0  0  0  0  0  0  0  0  0  0  0
    3.3296    7.6974    0.0000 C   0  0  0  0  0  0  0  0  0  0  0  0
    4.0441    7.2849    0.0000 C   0  0  0  0  0  0  0  0  0  0  0  0
    4.0441    6.4599    0.0000 C   0  0  0  0  0  0  0  0  0  0  0  0
    4.7586    6.0474    0.0000 C   0  0  0  0  0  0  0  0  0  0  0  0
    4.7586    5.2224    0.0000 C   0  0  0  0  0  0  0  0  0  0  0  0
    5.4730    4.8099    0.0000 C   0  0  0  0  0  0  0  0  0  0  0  0
    5.4730    3.9849    0.0000 C   0  0  0  0  0  0  0  0  0  0  0  0
    6.1875    3.5724    0.0000 C   0  0  0  0  0  0  0  0  0  0  0  0
    6.9020    3.9849    0.0000 C   0  0  0  0  0  0  0  0  0  0  0  0
    7.6164    3.5724    0.0000 C   0  0  0  0  0  0  0  0  0  0  0  0
    8.3309    3.9849    0.0000 C   0  0  0  0  0  0  0  0  0  0  0  0
    9.0454    3.5724    0.0000 C   0  0  0  0  0  0  0  0  0  0  0  0
    9.7599    3.9849    0.0000 C   0  0  0  0  0  0  0  0  0  0  0  0
   10.4743    3.5724    0.0000 C   0  0  0  0  0  0  0  0  0  0  0  0
   11.1888    3.9849    0.0000 C   0  0  0  0  0  0  0  0  0  0  0  0
   11.1888    4.8099    0.0000 O   0  0  0  0  0  0  0  0  0  0  0  0
   11.9033    3.5724    0.0000 O   0  0  0  0  0  0  0  0  0  0  0  0
   12.6177    3.9849    0.0000 C   0  0  0  0  0  0  0  0  0  0  0  0
   13.3322    3.5724    0.0000 C   0  0  0  0  0  0  0  0  0  0  0  0
   14.0467    3.9849    0.0000 O   0  0  0  0  0  0  0  0  0  0  0  0
  1  2  1  0  0  0  0
  2  3  1  0  0  0  0
  3  4  1  0  0  0  0
  4  5  1  0  0  0  0
  5  6  1  0  0  0  0
  6  7  1  0  0  0  0
  7  8  1  0  0  0  0
  9  8  1  4  0  0  0
  9 10  2  0  0  0  0
 10 11  1  0  0  0  0
 11 12  1  0  0  0  0
 12 13  1  0  0  0  0
 13 14  1  0  0  0  0
 14 15  1  0  0  0  0
 15 16  1  0  0  0  0
 16 17  1  0  0  0  0
 17 18  1  0  0  0  0
 18 19  2  0  0  0  0
 18 20  1  0  0  0  0
 20 21  1  0  0  0  0
 21 22  1  0  0  0  0
 22 23  1  0  0  0  0
M  END
> <activity>
53.8

> <InChiKey>
MUHFRORXWCGZGE-UHFFFAOYSA-N

$$$$

  Mrv2220 08292413132D          

 17 16  0  0  0  0            999 V2000
    0.8250   -4.1250    0.0000 O   0  0  0  0  0  0  0  0  0  0  0  0
    0.8250   -3.3000    0.0000 S   0  0  0  0  0  0  0  0  0  0  0  0
    1.6500   -3.3000    0.0000 O   0  0  0  0  0  0  0  0  0  0  0  0
    0.0000   -3.3000    0.0000 O   0  0  0  0  0  0  0  0  0  0  0  0
    0.8250   -2.4750    0.0000 C   0  0  0  0  0  0  0  0  0  0  0  0
    1.6500   -2.4750    0.0000 F   0  0  0  0  0  0  0  0  0  0  0  0
    0.0000   -2.4750    0.0000 F   0  0  0  0  0  0  0  0  0  0  0  0
    0.8250   -1.6500    0.0000 C   0  0  0  0  0  0  0  0  0  0  0  0
    1.6500   -1.6500    0.0000 F   0  0  0  0  0  0  0  0  0  0  0  0
    0.0000   -1.6500    0.0000 F   0  0  0  0  0  0  0  0  0  0  0  0
    0.8250   -0.8250    0.0000 C   0  0  0  0  0  0  0  0  0  0  0  0
    1.6500   -0.8250    0.0000 F   0  0  0  0  0  0  0  0  0  0  0  0
    0.0000   -0.8250    0.0000 F   0  0  0  0  0  0  0  0  0  0  0  0
    0.8250    0.0000    0.0000 C   0  0  0  0  0  0  0  0  0  0  0  0
    0.8250    0.8250    0.0000 F   0  0  0  0  0  0  0  0  0  0  0  0
    1.6500   -0.0000    0.0000 F   0  0  0  0  0  0  0  0  0  0  0  0
    0.0000    0.0000    0.0000 F   0  0  0  0  0  0  0  0  0  0  0  0
  1  2  2  0  0  0  0
  2  3  2  0  0  0  0
  2  4  1  0  0  0  0
  2  5  1  0  0  0  0
  5  6  1  0  0  0  0
  5  7  1  0  0  0  0
  5  8  1  0  0  0  0
  8  9  1  0  0  0  0
  8 10  1  0  0  0  0
  8 11  1  0  0  0  0
 11 12  1  0  0  0  0
 11 13  1  0  0  0  0
 11 14  1  0  0  0  0
 14 15  1  0  0  0  0
 14 16  1  0  0  0  0
 14 17  1  0  0  0  0
M  END
> <activity>
99.4

> <InChiKey>
JGTNAGYHADQMCM-UHFFFAOYSA-N

$$$$

  Mrv2220 08292413132D          

 23 22  0  0  0  0            999 V2000
    0.8250   -5.7750    0.0000 O   0  0  0  0  0  0  0  0  0  0  0  0
    0.8250   -4.9500    0.0000 S   0  0  0  0  0  0  0  0  0  0  0  0
    1.6500   -4.9500    0.0000 O   0  0  0  0  0  0  0  0  0  0  0  0
    0.0000   -4.9500    0.0000 O   0  0  0  0  0  0  0  0  0  0  0  0
    0.8250   -4.1250    0.0000 C   0  0  0  0  0  0  0  0  0  0  0  0
    1.6500   -4.1250    0.0000 F   0  0  0  0  0  0  0  0  0  0  0  0
    0.0000   -4.1250    0.0000 F   0  0  0  0  0  0  0  0  0  0  0  0
    0.8250   -3.3000    0.0000 C   0  0  0  0  0  0  0  0  0  0  0  0
    1.6500   -3.3000    0.0000 F   0  0  0  0  0  0  0  0  0  0  0  0
    0.0000   -3.3000    0.0000 F   0  0  0  0  0  0  0  0  0  0  0  0
    0.8250   -2.4750    0.0000 C   0  0  0  0  0  0  0  0  0  0  0  0
    1.6500   -2.4750    0.0000 F   0  0  0  0  0  0  0  0  0  0  0  0
    0.0000   -2.4750    0.0000 F   0  0  0  0  0  0  0  0  0  0  0  0
    0.8250   -1.6500    0.0000 C   0  0  0  0  0  0  0  0  0  0  0  0
    1.6500   -1.6500    0.0000 F   0  0  0  0  0  0  0  0  0  0  0  0
    0.0000   -1.6500    0.0000 F   0  0  0  0  0  0  0  0  0  0  0  0
    0.8250   -0.8250    0.0000 C   0  0  0  0  0  0  0  0  0  0  0  0
    1.6500   -0.8250    0.0000 F   0  0  0  0  0  0  0  0  0  0  0  0
    0.0000   -0.8250    0.0000 F   0  0  0  0  0  0  0  0  0  0  0  0
    0.8250    0.0000    0.0000 C   0  0  0  0  0  0  0  0  0  0  0  0
    0.8250    0.8250    0.0000 F   0  0  0  0  0  0  0  0  0  0  0  0
    1.6500   -0.0000    0.0000 F   0  0  0  0  0  0  0  0  0  0  0  0
    0.0000    0.0000    0.0000 F   0  0  0  0  0  0  0  0  0  0  0  0
  1  2  2  0  0  0  0
  2  3  2  0  0  0  0
  2  4  1  0  0  0  0
  2  5  1  0  0  0  0
  5  6  1  0  0  0  0
  5  7  1  0  0  0  0
  5  8  1  0  0  0  0
  8  9  1  0  0  0  0
  8 10  1  0  0  0  0
  8 11  1  0  0  0  0
 11 12  1  0  0  0  0
 11 13  1  0  0  0  0
 11 14  1  0  0  0  0
 14 15  1  0  0  0  0
 14 16  1  0  0  0  0
 14 17  1  0  0  0  0
 17 18  1  0  0  0  0
 17 19  1  0  0  0  0
 17 20  1  0  0  0  0
 20 21  1  0  0  0  0
 20 22  1  0  0  0  0
 20 23  1  0  0  0  0
M  END
> <activity>
102.4

> <InChiKey>
QZHDEAJFRJCDMF-UHFFFAOYSA-N

$$$$

  Mrv2220 08292413132D          

 30 31  0  0  0  0            999 V2000
    2.8579   -2.4750    0.0000 C   0  0  0  0  0  0  0  0  0  0  0  0
    2.1434   -2.0625    0.0000 C   0  0  0  0  0  0  0  0  0  0  0  0
    2.1434   -1.2375    0.0000 C   0  0  0  0  0  0  0  0  0  0  0  0
    2.8579   -0.8250    0.0000 C   0  0  0  0  0  0  0  0  0  0  0  0
    1.4289   -0.8250    0.0000 C   0  0  0  0  0  0  0  0  0  0  0  0
    0.7145   -1.2375    0.0000 O   0  0  0  0  0  0  0  0  0  0  0  0
    1.4289    0.0000    0.0000 O   0  0  0  0  0  0  0  0  0  0  0  0
    0.7145    0.4125    0.0000 C   0  0  0  0  0  0  0  0  0  0  0  0
    0.0000    0.0000    0.0000 C   0  0  0  0  0  0  0  0  0  0  0  0
   -0.7145    0.4125    0.0000 C   0  0  0  0  0  0  0  0  0  0  0  0
   -1.4289    0.0000    0.0000 O   0  0  0  0  0  0  0  0  0  0  0  0
   -0.7145    1.2375    0.0000 C   0  0  0  0  0  0  0  0  0  0  0  0
    0.0000    1.6500    0.0000 C   0  0  0  0  0  0  0  0  0  0  0  0
    0.0000    2.4750    0.0000 C   0  0  0  0  0  0  0  0  0  0  0  0
    0.7145    2.8875    0.0000 C   0  0  0  0  0  0  0  0  0  0  0  0
    1.4289    2.4750    0.0000 C   0  0  0  0  0  0  0  0  0  0  0  0
    2.1434    2.8875    0.0000 C   0  0  0  0  0  0  0  0  0  0  0  0
    1.4289    1.6500    0.0000 C   0  0  0  0  0  0  0  0  0  0  0  0
    2.1434    1.2375    0.0000 C   0  0  0  0  0  0  0  0  0  0  0  0
    2.8579    1.6500    0.0000 C   0  0  0  0  0  0  0  0  0  0  0  0
    3.5724    1.2375    0.0000 C   0  0  0  0  0  0  0  0  0  0  0  0
    3.5724    0.4125    0.0000 O   0  0  0  0  0  0  0  0  0  0  0  0
    4.2868    1.6500    0.0000 C   0  0  0  0  0  0  0  0  0  0  0  0
    5.0013    1.2375    0.0000 C   0  0  0  0  0  0  0  0  0  0  0  0
    5.0013    0.4125    0.0000 O   0  0  0  0  0  0  0  0  0  0  0  0
    5.7158    1.6500    0.0000 C   0  0  0  0  0  0  0  0  0  0  0  0
    6.4302    1.2375    0.0000 C   0  0  0  0  0  0  0  0  0  0  0  0
    7.1447    1.6500    0.0000 O   0  0  0  0  0  0  0  0  0  0  0  0
    6.4302    0.4125    0.0000 O   0  0  0  0  0  0  0  0  0  0  0  0
    0.7145    1.2375    0.0000 C   0  0  0  0  0  0  0  0  0  0  0  0
  1  2  1  0  0  0  0
  2  3  1  0  0  0  0
  3  4  1  0  0  0  0
  3  5  1  0  0  0  0
  5  6  2  0  0  0  0
  5  7  1  0  0  0  0
  7  8  1  0  0  0  0
  8  9  1  0  0  0  0
  9 10  1  0  0  0  0
 10 11  1  0  0  0  0
 10 12  1  0  0  0  0
 12 13  2  0  0  0  0
 13 14  1  0  0  0  0
 14 15  2  0  0  0  0
 15 16  1  0  0  0  0
 16 17  1  0  0  0  0
 16 18  1  0  0  0  0
 18 19  1  0  0  0  0
 19 20  1  0  0  0  0
 20 21  1  0  0  0  0
 21 22  1  0  0  0  0
 21 23  1  0  0  0  0
 23 24  1  0  0  0  0
 24 25  1  0  0  0  0
 24 26  1  0  0  0  0
 26 27  1  0  0  0  0
 27 28  2  0  0  0  0
 27 29  1  0  0  0  0
 18 30  1  0  0  0  0
 13 30  1  0  0  0  0
  8 30  1  0  0  0  0
M  END
> <activity>
1.1

> <InChiKey>
TUZYXOIXSAXUGO-UHFFFAOYSA-N

$$$$

  Mrv2220 08292413132D          

 25 28  0  0  0  0            999 V2000
    1.7447   -3.0280    0.0000 C   0  0  0  0  0  0  0  0  0  0  0  0
    2.5619   -3.1408    0.0000 C   0  0  0  0  0  0  0  0  0  0  0  0
    2.8728   -3.9050    0.0000 O   0  0  0  0  0  0  0  0  0  0  0  0
    3.0683   -2.4895    0.0000 C   0  0  0  0  0  0  0  0  0  0  0  0
    2.8390   -1.6970    0.0000 C   0  0  0  0  0  0  0  0  0  0  0  0
    2.0630   -1.4167    0.0000 C   0  0  0  0  0  0  0  0  0  0  0  0
    1.2871   -1.1364    0.0000 N   0  0  0  0  0  0  0  0  0  0  0  0
    3.5218   -1.2340    0.0000 C   0  0  0  0  0  0  0  0  0  0  0  0
    4.1731   -1.7404    0.0000 C   0  0  0  0  0  0  0  0  0  0  0  0
    4.9853   -1.5952    0.0000 C   0  0  0  0  0  0  0  0  0  0  0  0
    5.2655   -0.8192    0.0000 C   0  0  0  0  0  0  0  0  0  0  0  0
    6.0777   -0.6740    0.0000 C   0  0  0  0  0  0  0  0  0  0  0  0
    6.6095   -1.3047    0.0000 C   0  0  0  0  0  0  0  0  0  0  0  0
    7.4216   -1.1595    0.0000 C   0  0  0  0  0  0  0  0  0  0  0  0
    7.9534   -1.7902    0.0000 C   0  0  0  0  0  0  0  0  0  0  0  0
    8.7655   -1.6450    0.0000 O   0  0  0  0  0  0  0  0  0  0  0  0
    7.6731   -2.5662    0.0000 C   0  0  0  0  0  0  0  0  0  0  0  0
    6.8610   -2.7114    0.0000 C   0  0  0  0  0  0  0  0  0  0  0  0
    6.3292   -2.0807    0.0000 C   0  0  0  0  0  0  0  0  0  0  0  0
    6.0489   -2.8566    0.0000 C   0  0  0  0  0  0  0  0  0  0  0  0
    5.5171   -2.2259    0.0000 C   0  0  0  0  0  0  0  0  0  0  0  0
    5.2368   -3.0018    0.0000 C   0  0  0  0  0  0  0  0  0  0  0  0
    4.4247   -3.1470    0.0000 C   0  0  0  0  0  0  0  0  0  0  0  0
    3.8928   -2.5163    0.0000 C   0  0  0  0  0  0  0  0  0  0  0  0
    3.5330   -3.2587    0.0000 C   0  0  0  0  0  0  0  0  0  0  0  0
  1  2  1  0  0  0  0
  2  3  2  0  0  0  0
  2  4  1  0  0  0  0
  4  5  1  0  0  0  0
  5  6  1  0  0  0  0
  6  7  3  0  0  0  0
  5  8  1  0  0  0  0
  8  9  1  0  0  0  0
  9 10  1  0  0  0  0
 10 11  1  0  0  0  0
 11 12  1  0  0  0  0
 12 13  2  0  0  0  0
 13 14  1  0  0  0  0
 14 15  1  0  0  0  0
 15 16  1  0  0  0  0
 15 17  1  0  0  0  0
 17 18  1  0  0  0  0
 18 19  1  0  0  0  0
 13 19  1  0  0  0  0
 19 20  1  0  0  0  0
 19 21  1  0  0  0  0
 10 21  1  0  0  0  0
 21 22  1  0  0  0  0
 22 23  1  0  0  0  0
 23 24  1  0  0  0  0
  9 24  1  0  0  0  0
  4 24  1  0  0  0  0
 24 25  1  0  0  0  0
M  END
> <activity>
-24.9

> <InChiKey>
VSBHRRMYCDQLJF-UHFFFAOYSA-N

$$$$

  Mrv2220 08292413132D          

 18 20  0  0  0  0            999 V2000
    0.6171   -3.9114    0.0000 C   0  0  0  0  0  0  0  0  0  0  0  0
    0.9526   -3.1577    0.0000 C   0  0  0  0  0  0  0  0  0  0  0  0
    0.2382   -2.7452    0.0000 C   0  0  0  0  0  0  0  0  0  0  0  0
    0.9526   -2.3327    0.0000 C   0  0  0  0  0  0  0  0  0  0  0  0
    0.6171   -1.5790    0.0000 C   0  0  0  0  0  0  0  0  0  0  0  0
    1.7372   -2.0778    0.0000 C   0  0  0  0  0  0  0  0  0  0  0  0
    1.9922   -1.2931    0.0000 O   0  0  0  0  0  0  0  0  0  0  0  0
    2.2222   -2.7452    0.0000 N   0  0  0  0  0  0  0  0  0  0  0  0
    3.0472   -2.7452    0.0000 C   0  0  0  0  0  0  0  0  0  0  0  0
    3.4597   -2.0307    0.0000 C   0  0  0  0  0  0  0  0  0  0  0  0
    4.2847   -2.0307    0.0000 C   0  0  0  0  0  0  0  0  0  0  0  0
    4.6972   -1.3163    0.0000 Cl  0  0  0  0  0  0  0  0  0  0  0  0
    4.6972   -2.7452    0.0000 C   0  0  0  0  0  0  0  0  0  0  0  0
    4.2847   -3.4597    0.0000 C   0  0  0  0  0  0  0  0  0  0  0  0
    4.6972   -4.1741    0.0000 Cl  0  0  0  0  0  0  0  0  0  0  0  0
    3.4597   -3.4597    0.0000 C   0  0  0  0  0  0  0  0  0  0  0  0
    1.7372   -3.4126    0.0000 C   0  0  0  0  0  0  0  0  0  0  0  0
    1.9922   -4.1973    0.0000 O   0  0  0  0  0  0  0  0  0  0  0  0
  1  2  1  0  0  0  0
  2  3  1  0  0  0  0
  3  4  1  0  0  0  0
  2  4  1  0  0  0  0
  4  5  1  0  0  0  0
  4  6  1  0  0  0  0
  6  7  2  0  0  0  0
  6  8  1  0  0  0  0
  8  9  1  0  0  0  0
  9 10  4  0  0  0  0
 10 11  4  0  0  0  0
 11 12  1  0  0  0  0
 11 13  4  0  0  0  0
 13 14  4  0  0  0  0
 14 15  1  0  0  0  0
 14 16  4  0  0  0  0
  9 16  4  0  0  0  0
  8 17  1  0  0  0  0
  2 17  1  0  0  0  0
 17 18  2  0  0  0  0
M  END
> <activity>
54.3

> <InChiKey>
QXJKBPAVAHBARF-UHFFFAOYSA-N

$$$$

  Mrv2220 08292413132D          

 18 18  0  0  0  0            999 V2000
   -1.4289    4.9500    0.0000 C   0  0  0  0  0  0  0  0  0  0  0  0
   -1.4289    4.1250    0.0000 C   0  0  0  0  0  0  0  0  0  0  0  0
   -0.7145    3.7125    0.0000 C   0  0  0  0  0  0  0  0  0  0  0  0
   -0.7145    2.8875    0.0000 S   0  0  0  0  0  0  0  0  0  0  0  0
    0.0000    2.4750    0.0000 P   0  0  0  0  0  0  0  0  0  0  0  0
   -0.4125    1.7605    0.0000 O   0  0  0  0  0  0  0  0  0  0  0  0
    0.4125    3.1895    0.0000 O   0  0  0  0  0  0  0  0  0  0  0  0
    1.2375    3.1895    0.0000 C   0  0  0  0  0  0  0  0  0  0  0  0
    1.6500    2.4750    0.0000 C   0  0  0  0  0  0  0  0  0  0  0  0
    0.7145    2.0625    0.0000 O   0  0  0  0  0  0  0  0  0  0  0  0
    0.7145    1.2375    0.0000 C   0  0  0  0  0  0  0  0  0  0  0  0
    1.4289    0.8250    0.0000 C   0  0  0  0  0  0  0  0  0  0  0  0
    1.4289   -0.0000    0.0000 C   0  0  0  0  0  0  0  0  0  0  0  0
    0.7145   -0.4125    0.0000 C   0  0  0  0  0  0  0  0  0  0  0  0
    0.7145   -1.2375    0.0000 Br  0  0  0  0  0  0  0  0  0  0  0  0
    0.0000    0.0000    0.0000 C   0  0  0  0  0  0  0  0  0  0  0  0
    0.0000    0.8250    0.0000 C   0  0  0  0  0  0  0  0  0  0  0  0
   -0.7145    1.2375    0.0000 Cl  0  0  0  0  0  0  0  0  0  0  0  0
  1  2  1  0  0  0  0
  2  3  1  0  0  0  0
  3  4  1  0  0  0  0
  4  5  1  0  0  0  0
  5  6  2  0  0  0  0
  5  7  1  0  0  0  0
  7  8  1  0  0  0  0
  8  9  1  0  0  0  0
  5 10  1  0  0  0  0
 10 11  1  0  0  0  0
 11 12  4  0  0  0  0
 12 13  4  0  0  0  0
 13 14  4  0  0  0  0
 14 15  1  0  0  0  0
 14 16  4  0  0  0  0
 16 17  4  0  0  0  0
 11 17  4  0  0  0  0
 17 18  1  0  0  0  0
M  END
> <activity>
97.1

> <InChiKey>
QYMMJNLHFKGANY-UHFFFAOYSA-N

$$$$

  Mrv2220 08292413132D          

 23 26  0  0  0  0            999 V2000
    1.7447   -3.0280    0.0000 C   0  0  0  0  0  0  0  0  0  0  0  0
    2.5619   -3.1408    0.0000 C   0  0  0  0  0  0  0  0  0  0  0  0
    2.8728   -3.9050    0.0000 O   0  0  0  0  0  0  0  0  0  0  0  0
    3.0683   -2.4895    0.0000 C   0  0  0  0  0  0  0  0  0  0  0  0
    2.8390   -1.6970    0.0000 C   0  0  0  0  0  0  0  0  0  0  0  0
    3.5218   -1.2340    0.0000 C   0  0  0  0  0  0  0  0  0  0  0  0
    4.1731   -1.7404    0.0000 C   0  0  0  0  0  0  0  0  0  0  0  0
    4.9853   -1.5952    0.0000 C   0  0  0  0  0  0  0  0  0  0  0  0
    5.2655   -0.8192    0.0000 C   0  0  0  0  0  0  0  0  0  0  0  0
    6.0777   -0.6740    0.0000 C   0  0  0  0  0  0  0  0  0  0  0  0
    6.6095   -1.3047    0.0000 C   0  0  0  0  0  0  0  0  0  0  0  0
    7.4216   -1.1595    0.0000 C   0  0  0  0  0  0  0  0  0  0  0  0
    7.9534   -1.7902    0.0000 C   0  0  0  0  0  0  0  0  0  0  0  0
    8.7655   -1.6450    0.0000 O   0  0  0  0  0  0  0  0  0  0  0  0
    7.6731   -2.5662    0.0000 C   0  0  0  0  0  0  0  0  0  0  0  0
    6.8610   -2.7114    0.0000 C   0  0  0  0  0  0  0  0  0  0  0  0
    6.3292   -2.0807    0.0000 C   0  0  0  0  0  0  0  0  0  0  0  0
    6.0489   -2.8566    0.0000 C   0  0  0  0  0  0  0  0  0  0  0  0
    5.5171   -2.2259    0.0000 C   0  0  0  0  0  0  0  0  0  0  0  0
    5.2368   -3.0018    0.0000 C   0  0  0  0  0  0  0  0  0  0  0  0
    4.4247   -3.1470    0.0000 C   0  0  0  0  0  0  0  0  0  0  0  0
    3.8928   -2.5163    0.0000 C   0  0  0  0  0  0  0  0  0  0  0  0
    3.5330   -3.2587    0.0000 C   0  0  0  0  0  0  0  0  0  0  0  0
  1  2  1  0  0  0  0
  2  3  2  0  0  0  0
  2  4  1  0  0  0  0
  4  5  1  0  0  0  0
  5  6  1  0  0  0  0
  6  7  1  0  0  0  0
  7  8  1  0  0  0  0
  8  9  1  0  0  0  0
  9 10  1  0  0  0  0
 10 11  1  0  0  0  0
 11 12  2  0  0  0  0
 12 13  1  0  0  0  0
 13 14  2  0  0  0  0
 13 15  1  0  0  0  0
 15 16  1  0  0  0  0
 16 17  1  0  0  0  0
 11 17  1  0  0  0  0
 17 18  1  0  0  0  0
 17 19  1  0  0  0  0
  8 19  1  0  0  0  0
 19 20  1  0  0  0  0
 20 21  1  0  0  0  0
 21 22  1  0  0  0  0
  4 22  1  0  0  0  0
  7 22  1  0  0  0  0
 22 23  1  0  0  0  0
M  END
> <activity>
16.5

> <InChiKey>
RJKFOVLPORLFTN-UHFFFAOYSA-N

$$$$

  Mrv2220 08292413132D          

 13 12  0  0  0  0            999 V2000
    4.2355    3.2704    0.0000 C   0  0  0  0  0  0  0  0  0  0  0  0
    4.9500    2.8579    0.0000 C   0  0  0  0  0  0  0  0  0  0  0  0
    5.6645    3.2704    0.0000 C   0  0  0  0  0  0  0  0  0  0  0  0
    6.3789    2.8579    0.0000 O   0  0  0  0  0  0  0  0  0  0  0  0
    7.0934    3.2704    0.0000 C   0  0  0  0  0  0  0  0  0  0  0  0
    7.0934    4.0954    0.0000 O   0  0  0  0  0  0  0  0  0  0  0  0
    7.8079    2.8579    0.0000 N   0  0  0  0  0  0  0  0  0  0  0  0
    8.5224    3.2704    0.0000 C   0  0  0  0  0  0  0  0  0  0  0  0
    9.2368    2.8579    0.0000 C   0  0  0  0  0  0  0  0  0  0  0  0
    9.9513    3.2704    0.0000 C   0  0  0  0  0  0  0  0  0  0  0  0
   10.6658    2.8579    0.0000 N   0  0  0  0  0  0  0  0  0  0  0  0
   11.3802    3.2704    0.0000 C   0  0  0  0  0  0  0  0  0  0  0  0
   10.6658    2.0329    0.0000 C   0  0  0  0  0  0  0  0  0  0  0  0
  1  2  1  0  0  0  0
  2  3  1  0  0  0  0
  3  4  1  0  0  0  0
  4  5  1  0  0  0  0
  5  6  2  0  0  0  0
  5  7  1  0  0  0  0
  7  8  1  0  0  0  0
  8  9  1  0  0  0  0
  9 10  1  0  0  0  0
 10 11  1  0  0  0  0
 11 12  1  0  0  0  0
 11 13  1  0  0  0  0
M  END
> <activity>
19.7

> <InChiKey>
WZZLDXDUQPOXNW-UHFFFAOYSA-N

$$$$

  Mrv2220 08292413132D          

 24 25  0  0  0  0            999 V2000
    1.4289   -5.7750    0.0000 C   0  0  0  0  0  0  0  0  0  0  0  0
    2.1434   -5.3625    0.0000 C   0  0  0  0  0  0  0  0  0  0  0  0
    2.8579   -4.9500    0.0000 C   0  0  0  0  0  0  0  0  0  0  0  0
    3.5724   -5.3625    0.0000 O   0  0  0  0  0  0  0  0  0  0  0  0
    4.2868   -4.9500    0.0000 S   0  0  0  0  0  0  0  0  0  0  0  0
    4.2868   -4.1250    0.0000 O   0  0  0  0  0  0  0  0  0  0  0  0
    5.0013   -5.3625    0.0000 O   0  0  0  0  0  0  0  0  0  0  0  0
    5.7158   -4.9500    0.0000 C   0  0  0  0  0  0  0  0  0  0  0  0
    5.7158   -4.1250    0.0000 C   0  0  0  0  0  0  0  0  0  0  0  0
    6.4302   -3.7125    0.0000 C   0  0  0  0  0  0  0  0  0  0  0  0
    7.1447   -4.1250    0.0000 C   0  0  0  0  0  0  0  0  0  0  0  0
    7.1447   -4.9500    0.0000 C   0  0  0  0  0  0  0  0  0  0  0  0
    6.4302   -5.3625    0.0000 C   0  0  0  0  0  0  0  0  0  0  0  0
    6.4302   -6.1875    0.0000 O   0  0  0  0  0  0  0  0  0  0  0  0
    7.1447   -6.6000    0.0000 C   0  0  0  0  0  0  0  0  0  0  0  0
    7.8592   -6.1875    0.0000 C   0  0  0  0  0  0  0  0  0  0  0  0
    8.5737   -6.6000    0.0000 C   0  0  0  0  0  0  0  0  0  0  0  0
    8.5737   -7.4250    0.0000 C   0  0  0  0  0  0  0  0  0  0  0  0
    9.2881   -7.8375    0.0000 C   0  0  0  0  0  0  0  0  0  0  0  0
   10.0026   -8.2500    0.0000 C   0  0  0  0  0  0  0  0  0  0  0  0
    8.8756   -8.5520    0.0000 C   0  0  0  0  0  0  0  0  0  0  0  0
    9.7006   -7.1230    0.0000 C   0  0  0  0  0  0  0  0  0  0  0  0
    7.8592   -7.8375    0.0000 C   0  0  0  0  0  0  0  0  0  0  0  0
    7.1447   -7.4250    0.0000 C   0  0  0  0  0  0  0  0  0  0  0  0
  1  2  3  0  0  0  0
  2  3  1  0  0  0  0
  3  4  1  0  0  0  0
  4  5  1  0  0  0  0
  5  6  2  0  0  0  0
  5  7  1  0  0  0  0
  7  8  1  0  0  0  0
  8  9  1  0  0  0  0
  9 10  1  0  0  0  0
 10 11  1  0  0  0  0
 11 12  1  0  0  0  0
 12 13  1  0  0  0  0
  8 13  1  0  0  0  0
 13 14  1  0  0  0  0
 14 15  1  0  0  0  0
 15 16  4  0  0  0  0
 16 17  4  0  0  0  0
 17 18  4  0  0  0  0
 18 19  1  0  0  0  0
 19 20  1  0  0  0  0
 19 21  1  0  0  0  0
 19 22  1  0  0  0  0
 18 23  4  0  0  0  0
 23 24  4  0  0  0  0
 15 24  4  0  0  0  0
M  END
> <activity>
50.1

> <InChiKey>
ZYHMJXZULPZUED-UHFFFAOYSA-N

$$$$

  Mrv2220 08292413132D          

 17 16  0  0  0  0            999 V2000
    4.1250    1.4289    0.0000 C   0  0  0  0  0  0  0  0  0  0  0  0
    3.3000    1.4289    0.0000 C   0  0  0  0  0  0  0  0  0  0  0  0
    2.8875    0.7145    0.0000 N   0  0  0  0  0  0  0  0  0  0  0  0
    2.0625    0.7145    0.0000 P   0  0  0  0  0  0  0  0  0  0  0  0
    2.0625    1.5395    0.0000 S   0  0  0  0  0  0  0  0  0  0  0  0
    2.0625   -0.1105    0.0000 O   0  0  0  0  0  0  0  0  0  0  0  0
    2.7770   -0.5230    0.0000 C   0  0  0  0  0  0  0  0  0  0  0  0
    1.2375    0.7145    0.0000 O   0  0  0  0  0  0  0  0  0  0  0  0
    0.8250    0.0000    0.0000 C   0  0  0  0  0  0  0  0  0  0  0  0
    1.2375   -0.7145    0.0000 C   0  0  0  0  0  0  0  0  0  0  0  0
    0.0000    0.0000    0.0000 C   0  0  0  0  0  0  0  0  0  0  0  0
   -0.4125   -0.7145    0.0000 C   0  0  0  0  0  0  0  0  0  0  0  0
   -1.2375   -0.7145    0.0000 O   0  0  0  0  0  0  0  0  0  0  0  0
    0.0000   -1.4289    0.0000 O   0  0  0  0  0  0  0  0  0  0  0  0
   -0.4125   -2.1434    0.0000 C   0  0  0  0  0  0  0  0  0  0  0  0
    0.0000   -2.8579    0.0000 C   0  0  0  0  0  0  0  0  0  0  0  0
   -1.2375   -2.1434    0.0000 C   0  0  0  0  0  0  0  0  0  0  0  0
  1  2  1  0  0  0  0
  2  3  1  0  0  0  0
  3  4  1  0  0  0  0
  4  5  2  0  0  0  0
  4  6  1  0  0  0  0
  6  7  1  0  0  0  0
  4  8  1  0  0  0  0
  8  9  1  0  0  0  0
  9 10  1  0  0  0  0
  9 11  2  0  0  0  0
 11 12  1  4  0  0  0
 12 13  2  0  0  0  0
 12 14  1  0  0  0  0
 14 15  1  0  0  0  0
 15 16  1  0  0  0  0
 15 17  1  0  0  0  0
M  END
> <activity>
74.6

> <InChiKey>
BZNDWPRGXNILMS-UHFFFAOYSA-N

$$$$

  Mrv2220 08292413132D          

 13 13  0  0  0  0            999 V2000
    1.4289    2.4750    0.0000 C   0  0  0  0  0  0  0  0  0  0  0  0
    0.7145    2.0625    0.0000 C   0  0  0  0  0  0  0  0  0  0  0  0
    0.0000    2.4750    0.0000 C   0  0  0  0  0  0  0  0  0  0  0  0
    0.7145    1.2375    0.0000 C   0  0  0  0  0  0  0  0  0  0  0  0
    1.4289    0.8250    0.0000 C   0  0  0  0  0  0  0  0  0  0  0  0
    1.4289   -0.0000    0.0000 C   0  0  0  0  0  0  0  0  0  0  0  0
    0.7145   -0.4125    0.0000 C   0  0  0  0  0  0  0  0  0  0  0  0
    0.0000    0.0000    0.0000 C   0  0  0  0  0  0  0  0  0  0  0  0
   -0.7145   -0.4125    0.0000 C   0  0  0  0  0  0  0  0  0  0  0  0
   -0.7145   -1.2375    0.0000 C   0  0  0  0  0  0  0  0  0  0  0  0
   -1.4289    0.0000    0.0000 C   0  0  0  0  0  0  0  0  0  0  0  0
    0.0000    0.8250    0.0000 C   0  0  0  0  0  0  0  0  0  0  0  0
   -0.7145    1.2375    0.0000 O   0  0  0  0  0  0  0  0  0  0  0  0
  1  2  1  0  0  0  0
  2  3  1  0  0  0  0
  2  4  1  0  0  0  0
  4  5  4  0  0  0  0
  5  6  4  0  0  0  0
  6  7  4  0  0  0  0
  7  8  4  0  0  0  0
  8  9  1  0  0  0  0
  9 10  1  0  0  0  0
  9 11  1  0  0  0  0
  8 12  4  0  0  0  0
  4 12  4  0  0  0  0
 12 13  1  0  0  0  0
M  END
> <activity>
65.9

> <InChiKey>
OLBCVFGFOZPWHH-UHFFFAOYSA-N

$$$$

  Mrv2220 08292413132D          

 15 15  0  0  0  0            999 V2000
    2.1434    3.7125    0.0000 C   0  0  0  0  0  0  0  0  0  0  0  0
    1.4289    3.3000    0.0000 N   0  0  0  0  0  0  0  0  0  0  0  0
    1.4289    2.4750    0.0000 C   0  0  0  0  0  0  0  0  0  0  0  0
    2.1434    2.0625    0.0000 O   0  0  0  0  0  0  0  0  0  0  0  0
    0.7145    2.0625    0.0000 O   0  0  0  0  0  0  0  0  0  0  0  0
    0.7145    1.2375    0.0000 C   0  0  0  0  0  0  0  0  0  0  0  0
    1.4289    0.8250    0.0000 C   0  0  0  0  0  0  0  0  0  0  0  0
    1.4289   -0.0000    0.0000 C   0  0  0  0  0  0  0  0  0  0  0  0
    0.7145   -0.4125    0.0000 C   0  0  0  0  0  0  0  0  0  0  0  0
    0.0000    0.0000    0.0000 C   0  0  0  0  0  0  0  0  0  0  0  0
    0.0000    0.8250    0.0000 C   0  0  0  0  0  0  0  0  0  0  0  0
   -0.7145    1.2375    0.0000 O   0  0  0  0  0  0  0  0  0  0  0  0
   -1.4289    0.8250    0.0000 C   0  0  0  0  0  0  0  0  0  0  0  0
   -1.4289    0.0000    0.0000 C   0  0  0  0  0  0  0  0  0  0  0  0
   -2.1434    1.2375    0.0000 C   0  0  0  0  0  0  0  0  0  0  0  0
  1  2  1  0  0  0  0
  2  3  1  0  0  0  0
  3  4  2  0  0  0  0
  3  5  1  0  0  0  0
  5  6  1  0  0  0  0
  6  7  4  0  0  0  0
  7  8  4  0  0  0  0
  8  9  4  0  0  0  0
  9 10  4  0  0  0  0
 10 11  4  0  0  0  0
  6 11  4  0  0  0  0
 11 12  1  0  0  0  0
 12 13  1  0  0  0  0
 13 14  1  0  0  0  0
 13 15  1  0  0  0  0
M  END
> <activity>
15.2

> <InChiKey>
ISRUGXGCCGIOQO-UHFFFAOYSA-N

$$$$

  Mrv2220 08292413132D          

  7  7  0  0  0  0            999 V2000
    0.5678    1.9393    0.0000 C   0  0  0  0  0  0  0  0  0  0  0  0
    0.5678    1.1143    0.0000 C   0  0  0  0  0  0  0  0  0  0  0  0
    1.2352    0.6294    0.0000 C   0  0  0  0  0  0  0  0  0  0  0  0
    0.9803   -0.1553    0.0000 O   0  0  0  0  0  0  0  0  0  0  0  0
    0.1553   -0.1553    0.0000 C   0  0  0  0  0  0  0  0  0  0  0  0
   -0.3297   -0.8227    0.0000 O   0  0  0  0  0  0  0  0  0  0  0  0
   -0.0997    0.6294    0.0000 O   0  0  0  0  0  0  0  0  0  0  0  0
  1  2  1  0  0  0  0
  2  3  1  0  0  0  0
  3  4  1  0  0  0  0
  4  5  1  0  0  0  0
  5  6  2  0  0  0  0
  5  7  1  0  0  0  0
  2  7  1  0  0  0  0
M  END
> <activity>
11.4

> <InChiKey>
RUOJZAUFBMNUDX-UHFFFAOYSA-N

$$$$

  Mrv2220 08292413132D          

 13 13  0  0  0  0            999 V2000
    0.0000   -2.4750    0.0000 C   0  0  0  0  0  0  0  0  0  0  0  0
    0.7145   -2.8875    0.0000 C   0  0  0  0  0  0  0  0  0  0  0  0
    1.4289   -2.4750    0.0000 C   0  0  0  0  0  0  0  0  0  0  0  0
    2.1434   -2.8875    0.0000 O   0  0  0  0  0  0  0  0  0  0  0  0
    2.8579   -2.4750    0.0000 C   0  0  0  0  0  0  0  0  0  0  0  0
    2.8579   -1.6500    0.0000 O   0  0  0  0  0  0  0  0  0  0  0  0
    3.5724   -2.8875    0.0000 C   0  0  0  0  0  0  0  0  0  0  0  0
    4.2868   -2.4750    0.0000 C   0  0  0  0  0  0  0  0  0  0  0  0
    5.0013   -2.8875    0.0000 C   0  0  0  0  0  0  0  0  0  0  0  0
    5.0013   -3.7125    0.0000 C   0  0  0  0  0  0  0  0  0  0  0  0
    5.7158   -4.1250    0.0000 O   0  0  0  0  0  0  0  0  0  0  0  0
    4.2868   -4.1250    0.0000 C   0  0  0  0  0  0  0  0  0  0  0  0
    3.5724   -3.7125    0.0000 C   0  0  0  0  0  0  0  0  0  0  0  0
  1  2  1  0  0  0  0
  2  3  1  0  0  0  0
  3  4  1  0  0  0  0
  4  5  1  0  0  0  0
  5  6  2  0  0  0  0
  5  7  1  0  0  0  0
  7  8  4  0  0  0  0
  8  9  4  0  0  0  0
  9 10  4  0  0  0  0
 10 11  1  0  0  0  0
 10 12  4  0  0  0  0
 12 13  4  0  0  0  0
  7 13  4  0  0  0  0
M  END
> <activity>
96.8

> <InChiKey>
QELSKZZBTMNZEB-UHFFFAOYSA-N

$$$$

  Mrv2220 08292413132D          

 16 16  0  0  0  0            999 V2000
    0.0000    4.9500    0.0000 C   0  0  0  0  0  0  0  0  0  0  0  0
    0.0000    4.1250    0.0000 C   0  0  0  0  0  0  0  0  0  0  0  0
    0.0000    3.3000    0.0000 C   0  0  0  0  0  0  0  0  0  0  0  0
   -0.8250    3.3000    0.0000 C   0  0  0  0  0  0  0  0  0  0  0  0
    0.8250    3.3000    0.0000 C   0  0  0  0  0  0  0  0  0  0  0  0
    0.0000    2.4750    0.0000 N   0  0  0  0  0  0  0  0  0  0  0  0
    0.7145    2.0625    0.0000 C   0  0  0  0  0  0  0  0  0  0  0  0
    1.4289    2.4750    0.0000 O   0  0  0  0  0  0  0  0  0  0  0  0
    0.7145    1.2375    0.0000 C   0  0  0  0  0  0  0  0  0  0  0  0
    1.4289    0.8250    0.0000 C   0  0  0  0  0  0  0  0  0  0  0  0
    1.4289   -0.0000    0.0000 C   0  0  0  0  0  0  0  0  0  0  0  0
    2.1434   -0.4125    0.0000 Cl  0  0  0  0  0  0  0  0  0  0  0  0
    0.7145   -0.4125    0.0000 C   0  0  0  0  0  0  0  0  0  0  0  0
    0.0000    0.0000    0.0000 C   0  0  0  0  0  0  0  0  0  0  0  0
   -0.7145   -0.4125    0.0000 Cl  0  0  0  0  0  0  0  0  0  0  0  0
    0.0000    0.8250    0.0000 C   0  0  0  0  0  0  0  0  0  0  0  0
  1  2  3  0  0  0  0
  2  3  1  0  0  0  0
  3  4  1  0  0  0  0
  3  5  1  0  0  0  0
  3  6  1  0  0  0  0
  6  7  1  0  0  0  0
  7  8  2  0  0  0  0
  7  9  1  0  0  0  0
  9 10  4  0  0  0  0
 10 11  4  0  0  0  0
 11 12  1  0  0  0  0
 11 13  4  0  0  0  0
 13 14  4  0  0  0  0
 14 15  1  0  0  0  0
 14 16  4  0  0  0  0
  9 16  4  0  0  0  0
M  END
> <activity>
64.8

> <InChiKey>
PHNUZKMIPFFYSO-UHFFFAOYSA-N

$$$$

  Mrv2220 08292413132D          

 16 17  0  0  0  0            999 V2000
    1.4289   -1.6500    0.0000 C   0  0  0  0  0  0  0  0  0  0  0  0
    1.4289   -2.4750    0.0000 C   0  0  0  0  0  0  0  0  0  0  0  0
    2.1434   -2.8875    0.0000 N   0  0  0  0  0  0  0  0  0  0  0  0
    2.1434   -3.7125    0.0000 N   0  0  0  0  0  0  0  0  0  0  0  0
    1.4289   -4.1250    0.0000 C   0  0  0  0  0  0  0  0  0  0  0  0
    1.4289   -4.9500    0.0000 O   0  0  0  0  0  0  0  0  0  0  0  0
    0.7145   -3.7125    0.0000 N   0  0  0  0  0  0  0  0  0  0  0  0
    0.0000   -4.1250    0.0000 N   0  0  0  0  0  0  0  0  0  0  0  0
    0.0000   -4.9500    0.0000 C   0  0  0  0  0  0  0  0  0  0  0  0
   -0.7145   -5.3625    0.0000 C   0  0  0  0  0  0  0  0  0  0  0  0
   -0.7145   -6.1875    0.0000 C   0  0  0  0  0  0  0  0  0  0  0  0
   -1.4289   -6.6000    0.0000 C   0  0  0  0  0  0  0  0  0  0  0  0
   -2.1434   -6.1875    0.0000 C   0  0  0  0  0  0  0  0  0  0  0  0
   -2.1434   -5.3625    0.0000 N   0  0  0  0  0  0  0  0  0  0  0  0
   -1.4289   -4.9500    0.0000 C   0  0  0  0  0  0  0  0  0  0  0  0
    0.7145   -2.8875    0.0000 C   0  0  0  0  0  0  0  0  0  0  0  0
  1  2  1  0  0  0  0
  2  3  2  0  0  0  0
  3  4  1  0  0  0  0
  4  5  1  0  0  0  0
  5  6  2  0  0  0  0
  5  7  1  0  0  0  0
  8  7  1  4  0  0  0
  8  9  2  0  0  0  0
  9 10  1  0  0  0  0
 10 11  4  0  0  0  0
 11 12  4  0  0  0  0
 12 13  4  0  0  0  0
 13 14  4  0  0  0  0
 14 15  4  0  0  0  0
 10 15  4  0  0  0  0
  7 16  1  0  0  0  0
  2 16  1  0  0  0  0
M  END
> <activity>
3.1

> <InChiKey>
QHMTXANCGGJZRX-UHFFFAOYSA-N

$$$$

  Mrv2220 08292413132D          

 19 20  0  0  0  0            999 V2000
    0.0000    0.0000    0.0000 O   0  0  0  0  0  0  0  0  0  0  0  0
    0.7145   -0.4125    0.0000 C   0  0  0  0  0  0  0  0  0  0  0  0
    1.4289   -0.0000    0.0000 O   0  0  0  0  0  0  0  0  0  0  0  0
    0.7145   -1.2375    0.0000 C   0  0  0  0  0  0  0  0  0  0  0  0
    1.3819   -1.7224    0.0000 N   0  0  0  0  0  0  0  0  0  0  0  0
    1.1270   -2.5070    0.0000 N   0  0  0  0  0  0  0  0  0  0  0  0
    1.6119   -3.1745    0.0000 C   0  0  0  0  0  0  0  0  0  0  0  0
    2.4324   -3.0882    0.0000 C   0  0  0  0  0  0  0  0  0  0  0  0
    2.9173   -3.7557    0.0000 C   0  0  0  0  0  0  0  0  0  0  0  0
    2.5817   -4.5094    0.0000 C   0  0  0  0  0  0  0  0  0  0  0  0
    3.0667   -5.1768    0.0000 S   0  0  0  0  0  0  0  0  0  0  0  0
    3.5516   -5.8442    0.0000 O   0  0  0  0  0  0  0  0  0  0  0  0
    2.3992   -5.6617    0.0000 O   0  0  0  0  0  0  0  0  0  0  0  0
    3.7341   -4.6919    0.0000 O   0  0  0  0  0  0  0  0  0  0  0  0
    1.7613   -4.5956    0.0000 C   0  0  0  0  0  0  0  0  0  0  0  0
    1.2763   -3.9282    0.0000 C   0  0  0  0  0  0  0  0  0  0  0  0
    0.3020   -2.5070    0.0000 C   0  0  0  0  0  0  0  0  0  0  0  0
   -0.1830   -3.1745    0.0000 O   0  0  0  0  0  0  0  0  0  0  0  0
    0.0470   -1.7224    0.0000 C   0  0  0  0  0  0  0  0  0  0  0  0
  1  2  2  0  0  0  0
  2  3  1  0  0  0  0
  2  4  1  0  0  0  0
  4  5  2  0  0  0  0
  5  6  1  0  0  0  0
  6  7  1  0  0  0  0
  7  8  4  0  0  0  0
  8  9  4  0  0  0  0
  9 10  4  0  0  0  0
 10 11  1  0  0  0  0
 11 12  2  0  0  0  0
 11 13  2  0  0  0  0
 11 14  1  0  0  0  0
 10 15  4  0  0  0  0
 15 16  4  0  0  0  0
  7 16  4  0  0  0  0
  6 17  1  0  0  0  0
 17 18  2  0  0  0  0
 17 19  1  0  0  0  0
  4 19  1  0  0  0  0
M  END
> <activity>
36.9

> <InChiKey>
TYCNXOAPQGVAQU-UHFFFAOYSA-N

$$$$

  Mrv2220 08292413132D          

 17 18  0  0  0  0            999 V2000
    0.0000    0.0000    0.0000 C   0  0  0  0  0  0  0  0  0  0  0  0
    0.7145   -0.4125    0.0000 C   0  0  0  0  0  0  0  0  0  0  0  0
    0.7145   -1.2375    0.0000 C   0  0  0  0  0  0  0  0  0  0  0  0
    1.4289   -1.6500    0.0000 N   0  0  0  0  0  0  0  0  0  0  0  0
    1.4289   -2.4750    0.0000 C   0  0  0  0  0  0  0  0  0  0  0  0
    2.1434   -2.8875    0.0000 N   0  0  0  0  0  0  0  0  0  0  0  0
    0.7145   -2.8875    0.0000 N   0  0  0  0  0  0  0  0  0  0  0  0
    0.0000   -2.4750    0.0000 C   0  0  0  0  0  0  0  0  0  0  0  0
   -0.7145   -2.8875    0.0000 N   0  0  0  0  0  0  0  0  0  0  0  0
    0.0000   -1.6500    0.0000 C   0  0  0  0  0  0  0  0  0  0  0  0
   -0.7145   -1.2375    0.0000 C   0  0  0  0  0  0  0  0  0  0  0  0
   -1.4289   -1.6500    0.0000 C   0  0  0  0  0  0  0  0  0  0  0  0
   -2.1434   -1.2375    0.0000 C   0  0  0  0  0  0  0  0  0  0  0  0
   -2.1434   -0.4125    0.0000 C   0  0  0  0  0  0  0  0  0  0  0  0
   -2.8579    0.0000    0.0000 Cl  0  0  0  0  0  0  0  0  0  0  0  0
   -1.4289    0.0000    0.0000 C   0  0  0  0  0  0  0  0  0  0  0  0
   -0.7145   -0.4125    0.0000 C   0  0  0  0  0  0  0  0  0  0  0  0
  1  2  1  0  0  0  0
  2  3  1  0  0  0  0
  3  4  4  0  0  0  0
  4  5  4  0  0  0  0
  5  6  1  0  0  0  0
  5  7  4  0  0  0  0
  7  8  4  0  0  0  0
  8  9  1  0  0  0  0
  8 10  4  0  0  0  0
  3 10  4  0  0  0  0
 10 11  1  0  0  0  0
 11 12  4  0  0  0  0
 12 13  4  0  0  0  0
 13 14  4  0  0  0  0
 14 15  1  0  0  0  0
 14 16  4  0  0  0  0
 16 17  4  0  0  0  0
 11 17  4  0  0  0  0
M  END
> <activity>
43.6

> <InChiKey>
WKSAUQYGYAYLPV-UHFFFAOYSA-N

$$$$

  Mrv2220 08292413132D          

 24 26  0  0  0  0            999 V2000
    2.1434   -3.7125    0.0000 C   0  0  0  0  0  0  0  0  0  0  0  0
    2.1434   -2.8875    0.0000 C   0  0  0  0  0  0  0  0  0  0  0  0
    1.4289   -2.4750    0.0000 C   0  0  0  0  0  0  0  0  0  0  0  0
    0.7145   -2.8875    0.0000 O   0  0  0  0  0  0  0  0  0  0  0  0
    0.0000   -2.4750    0.0000 C   0  0  0  0  0  0  0  0  0  0  0  0
   -0.7145   -2.8875    0.0000 C   0  0  0  0  0  0  0  0  0  0  0  0
   -1.4289   -2.4750    0.0000 C   0  0  0  0  0  0  0  0  0  0  0  0
   -1.4289   -1.6500    0.0000 C   0  0  0  0  0  0  0  0  0  0  0  0
   -2.1434   -1.2375    0.0000 O   0  0  0  0  0  0  0  0  0  0  0  0
   -2.1434   -0.4125    0.0000 C   0  0  0  0  0  0  0  0  0  0  0  0
   -2.8579    0.0000    0.0000 C   0  0  0  0  0  0  0  0  0  0  0  0
   -2.8579    0.8250    0.0000 C   0  0  0  0  0  0  0  0  0  0  0  0
   -2.1434    1.2375    0.0000 C   0  0  0  0  0  0  0  0  0  0  0  0
   -1.4289    0.8250    0.0000 C   0  0  0  0  0  0  0  0  0  0  0  0
   -1.4289    0.0000    0.0000 C   0  0  0  0  0  0  0  0  0  0  0  0
   -0.7145   -1.2375    0.0000 C   0  0  0  0  0  0  0  0  0  0  0  0
    0.0000   -1.6500    0.0000 C   0  0  0  0  0  0  0  0  0  0  0  0
    2.8579   -2.4750    0.0000 O   0  0  0  0  0  0  0  0  0  0  0  0
    3.5724   -2.8875    0.0000 C   0  0  0  0  0  0  0  0  0  0  0  0
    4.2868   -2.4750    0.0000 C   0  0  0  0  0  0  0  0  0  0  0  0
    5.0013   -2.8875    0.0000 C   0  0  0  0  0  0  0  0  0  0  0  0
    5.0013   -3.7125    0.0000 C   0  0  0  0  0  0  0  0  0  0  0  0
    4.2868   -4.1250    0.0000 C   0  0  0  0  0  0  0  0  0  0  0  0
    3.5724   -3.7125    0.0000 N   0  0  0  0  0  0  0  0  0  0  0  0
  1  2  1  0  0  0  0
  2  3  1  0  0  0  0
  3  4  1  0  0  0  0
  4  5  1  0  0  0  0
  5  6  4  0  0  0  0
  6  7  4  0  0  0  0
  7  8  4  0  0  0  0
  8  9  1  0  0  0  0
  9 10  1  0  0  0  0
 10 11  4  0  0  0  0
 11 12  4  0  0  0  0
 12 13  4  0  0  0  0
 13 14  4  0  0  0  0
 14 15  4  0  0  0  0
 10 15  4  0  0  0  0
  8 16  4  0  0  0  0
 16 17  4  0  0  0  0
  5 17  4  0  0  0  0
  2 18  1  0  0  0  0
 18 19  1  0  0  0  0
 19 20  4  0  0  0  0
 20 21  4  0  0  0  0
 21 22  4  0  0  0  0
 22 23  4  0  0  0  0
 23 24  4  0  0  0  0
 19 24  4  0  0  0  0
M  END
> <activity>
44.7

> <InChiKey>
NHDHVHZZCFYRSB-UHFFFAOYSA-N

$$$$

  Mrv2220 08292413132D          

 21 22  0  0  0  0            999 V2000
    0.0000   -0.0000    0.0000 C   0  0  0  0  0  0  0  0  0  0  0  0
   -0.7145   -0.4125    0.0000 O   0  0  0  0  0  0  0  0  0  0  0  0
   -0.7145   -1.2375    0.0000 C   0  0  0  0  0  0  0  0  0  0  0  0
    0.0000   -1.6500    0.0000 C   0  0  0  0  0  0  0  0  0  0  0  0
    0.0000   -2.4750    0.0000 C   0  0  0  0  0  0  0  0  0  0  0  0
    0.7145   -2.8875    0.0000 O   0  0  0  0  0  0  0  0  0  0  0  0
    0.7145   -3.7125    0.0000 C   0  0  0  0  0  0  0  0  0  0  0  0
   -0.7145   -2.8875    0.0000 N   0  0  0  0  0  0  0  0  0  0  0  0
   -1.4289   -2.4750    0.0000 C   0  0  0  0  0  0  0  0  0  0  0  0
   -2.1434   -2.8875    0.0000 S   0  0  0  0  0  0  0  0  0  0  0  0
   -2.1434   -3.7125    0.0000 C   0  0  0  0  0  0  0  0  0  0  0  0
   -1.4289   -4.1250    0.0000 C   0  0  0  0  0  0  0  0  0  0  0  0
   -1.4289   -4.9500    0.0000 C   0  0  0  0  0  0  0  0  0  0  0  0
   -2.1434   -5.3625    0.0000 C   0  0  0  0  0  0  0  0  0  0  0  0
   -2.8579   -4.9500    0.0000 C   0  0  0  0  0  0  0  0  0  0  0  0
   -3.5724   -5.3625    0.0000 Cl  0  0  0  0  0  0  0  0  0  0  0  0
   -2.8579   -4.1250    0.0000 C   0  0  0  0  0  0  0  0  0  0  0  0
   -3.5724   -3.7125    0.0000 C   0  0  0  0  0  0  0  0  0  0  0  0
   -3.5724   -2.8875    0.0000 O   0  0  0  0  0  0  0  0  0  0  0  0
   -4.2868   -4.1250    0.0000 O   0  0  0  0  0  0  0  0  0  0  0  0
   -1.4289   -1.6500    0.0000 N   0  0  0  0  0  0  0  0  0  0  0  0
  1  2  1  0  0  0  0
  2  3  1  0  0  0  0
  3  4  4  0  0  0  0
  4  5  4  0  0  0  0
  5  6  1  0  0  0  0
  6  7  1  0  0  0  0
  5  8  4  0  0  0  0
  8  9  4  0  0  0  0
  9 10  1  0  0  0  0
 10 11  1  0  0  0  0
 11 12  4  0  0  0  0
 12 13  4  0  0  0  0
 13 14  4  0  0  0  0
 14 15  4  0  0  0  0
 15 16  1  0  0  0  0
 15 17  4  0  0  0  0
 11 17  4  0  0  0  0
 17 18  1  0  0  0  0
 18 19  2  0  0  0  0
 18 20  1  0  0  0  0
  9 21  4  0  0  0  0
  3 21  4  0  0  0  0
M  END
> <activity>
66.3

> <InChiKey>
QEGVVEOAVNHRAA-UHFFFAOYSA-N

$$$$

  Mrv2220 08292413132D          

 15 16  0  0  0  0            999 V2000
    0.7145   -2.8875    0.0000 O   0  0  0  0  0  0  0  0  0  0  0  0
    1.4289   -2.4750    0.0000 C   0  0  0  0  0  0  0  0  0  0  0  0
    2.1434   -2.8875    0.0000 O   0  0  0  0  0  0  0  0  0  0  0  0
    1.4289   -1.6500    0.0000 C   0  0  0  0  0  0  0  0  0  0  0  0
    0.7145   -1.2375    0.0000 C   0  0  0  0  0  0  0  0  0  0  0  0
    0.0000   -1.6500    0.0000 Cl  0  0  0  0  0  0  0  0  0  0  0  0
    0.7145   -0.4125    0.0000 C   0  0  0  0  0  0  0  0  0  0  0  0
    1.4289    0.0000    0.0000 C   0  0  0  0  0  0  0  0  0  0  0  0
    2.1434   -0.4125    0.0000 C   0  0  0  0  0  0  0  0  0  0  0  0
    2.8579    0.0000    0.0000 C   0  0  0  0  0  0  0  0  0  0  0  0
    3.5724   -0.4125    0.0000 C   0  0  0  0  0  0  0  0  0  0  0  0
    4.2868   -0.0000    0.0000 Cl  0  0  0  0  0  0  0  0  0  0  0  0
    3.5724   -1.2375    0.0000 C   0  0  0  0  0  0  0  0  0  0  0  0
    2.8579   -1.6500    0.0000 N   0  0  0  0  0  0  0  0  0  0  0  0
    2.1434   -1.2375    0.0000 C   0  0  0  0  0  0  0  0  0  0  0  0
  1  2  2  0  0  0  0
  2  3  1  0  0  0  0
  2  4  1  0  0  0  0
  4  5  4  0  0  0  0
  5  6  1  0  0  0  0
  5  7  4  0  0  0  0
  7  8  4  0  0  0  0
  8  9  4  0  0  0  0
  9 10  4  0  0  0  0
 10 11  4  0  0  0  0
 11 12  1  0  0  0  0
 11 13  4  0  0  0  0
 13 14  4  0  0  0  0
 14 15  4  0  0  0  0
  4 15  4  0  0  0  0
  9 15  4  0  0  0  0
M  END
> <activity>
18.7

> <InChiKey>
FFSSWMQPCJRCRV-UHFFFAOYSA-N

$$$$

  Mrv2220 08292413132D          

 10 11  0  0  0  0            999 V2000
    0.7145   -1.2375    0.0000 C   0  0  0  0  0  0  0  0  0  0  0  0
    0.7145   -0.4125    0.0000 C   0  0  0  0  0  0  0  0  0  0  0  0
    1.4289    0.0000    0.0000 C   0  0  0  0  0  0  0  0  0  0  0  0
    2.1434   -0.4125    0.0000 C   0  0  0  0  0  0  0  0  0  0  0  0
    2.8579    0.0000    0.0000 N   0  0  0  0  0  0  0  0  0  0  0  0
    3.5724   -0.4125    0.0000 C   0  0  0  0  0  0  0  0  0  0  0  0
    3.5724   -1.2375    0.0000 C   0  0  0  0  0  0  0  0  0  0  0  0
    2.8579   -1.6500    0.0000 C   0  0  0  0  0  0  0  0  0  0  0  0
    2.1434   -1.2375    0.0000 C   0  0  0  0  0  0  0  0  0  0  0  0
    1.4289   -1.6500    0.0000 C   0  0  0  0  0  0  0  0  0  0  0  0
  1  2  4  0  0  0  0
  2  3  4  0  0  0  0
  3  4  4  0  0  0  0
  4  5  4  0  0  0  0
  5  6  4  0  0  0  0
  6  7  4  0  0  0  0
  7  8  4  0  0  0  0
  8  9  4  0  0  0  0
  4  9  4  0  0  0  0
  9 10  4  0  0  0  0
  1 10  4  0  0  0  0
M  END
> <activity>
34.3

> <InChiKey>
SMWDFEZZVXVKRB-UHFFFAOYSA-N

$$$$

  Mrv2220 08292413132D          

 11 11  0  0  0  0            999 V2000
    0.0000    2.4750    0.0000 C   0  0  0  0  0  0  0  0  0  0  0  0
    0.7145    2.0625    0.0000 C   0  0  0  0  0  0  0  0  0  0  0  0
    1.4289    2.4750    0.0000 C   0  0  0  0  0  0  0  0  0  0  0  0
    0.7145    1.2375    0.0000 C   0  0  0  0  0  0  0  0  0  0  0  0
    1.4289    0.8250    0.0000 C   0  0  0  0  0  0  0  0  0  0  0  0
    1.4289   -0.0000    0.0000 C   0  0  0  0  0  0  0  0  0  0  0  0
    0.7145   -0.4125    0.0000 C   0  0  0  0  0  0  0  0  0  0  0  0
    0.7145   -1.2375    0.0000 C   0  0  0  0  0  0  0  0  0  0  0  0
    0.0000    0.0000    0.0000 C   0  0  0  0  0  0  0  0  0  0  0  0
   -0.7145   -0.4125    0.0000 O   0  0  0  0  0  0  0  0  0  0  0  0
    0.0000    0.8250    0.0000 C   0  0  0  0  0  0  0  0  0  0  0  0
  1  2  2  0  0  0  0
  2  3  1  0  0  0  0
  2  4  1  0  0  0  0
  4  5  1  0  0  0  0
  5  6  1  0  0  0  0
  6  7  2  0  0  0  0
  7  8  1  0  0  0  0
  7  9  1  0  0  0  0
  9 10  2  0  0  0  0
  9 11  1  0  0  0  0
  4 11  1  0  0  0  0
M  END
> <activity>
24.0

> <InChiKey>
ULDHMXUKGWMISQ-UHFFFAOYSA-N

$$$$

  Mrv2220 08292413132D          

 33 36  0  0  0  0            999 V2000
    0.0000   -0.0000    0.0000 C   0  0  0  0  0  0  0  0  0  0  0  0
    0.7145   -0.4125    0.0000 C   0  0  0  0  0  0  0  0  0  0  0  0
    0.7145   -1.2375    0.0000 N   0  0  0  0  0  0  0  0  0  0  0  0
    1.4289   -1.6500    0.0000 C   0  0  0  0  0  0  0  0  0  0  0  0
    2.1434   -1.2375    0.0000 C   0  0  0  0  0  0  0  0  0  0  0  0
    2.8579   -1.6500    0.0000 C   0  0  0  0  0  0  0  0  0  0  0  0
    3.5724   -1.2375    0.0000 O   0  3  0  0  0  0  0  0  0  0  0  0
    4.2868   -1.6500    0.0000 C   0  0  0  0  0  0  0  0  0  0  0  0
    5.0013   -1.2375    0.0000 C   0  0  0  0  0  0  0  0  0  0  0  0
    5.7158   -1.6500    0.0000 C   0  0  0  0  0  0  0  0  0  0  0  0
    6.4302   -1.2375    0.0000 N   0  0  0  0  0  0  0  0  0  0  0  0
    6.4302   -0.4125    0.0000 C   0  0  0  0  0  0  0  0  0  0  0  0
    7.1447   -0.0000    0.0000 C   0  0  0  0  0  0  0  0  0  0  0  0
    5.7158   -2.4750    0.0000 C   0  0  0  0  0  0  0  0  0  0  0  0
    6.4302   -2.8875    0.0000 C   0  0  0  0  0  0  0  0  0  0  0  0
    5.0013   -2.8875    0.0000 C   0  0  0  0  0  0  0  0  0  0  0  0
    4.2868   -2.4750    0.0000 C   0  0  0  0  0  0  0  0  0  0  0  0
    3.5724   -2.8875    0.0000 C   0  0  0  0  0  0  0  0  0  0  0  0
    3.5724   -3.7125    0.0000 C   0  0  0  0  0  0  0  0  0  0  0  0
    4.2868   -4.1250    0.0000 C   0  0  0  0  0  0  0  0  0  0  0  0
    4.2868   -4.9500    0.0000 C   0  0  0  0  0  0  0  0  0  0  0  0
    3.5724   -5.3625    0.0000 C   0  0  0  0  0  0  0  0  0  0  0  0
    2.8579   -4.9500    0.0000 C   0  0  0  0  0  0  0  0  0  0  0  0
    2.8579   -4.1250    0.0000 C   0  0  0  0  0  0  0  0  0  0  0  0
    2.1434   -3.7125    0.0000 C   0  0  0  0  0  0  0  0  0  0  0  0
    1.6585   -3.0451    0.0000 O   0  0  0  0  0  0  0  0  0  0  0  0
    1.4289   -4.1250    0.0000 O   0  0  0  0  0  0  0  0  0  0  0  0
    1.4289   -4.9500    0.0000 C   0  0  0  0  0  0  0  0  0  0  0  0
    2.1434   -5.3625    0.0000 C   0  0  0  0  0  0  0  0  0  0  0  0
    2.8579   -2.4750    0.0000 C   0  0  0  0  0  0  0  0  0  0  0  0
    2.1434   -2.8875    0.0000 C   0  0  0  0  0  0  0  0  0  0  0  0
    1.4289   -2.4750    0.0000 C   0  0  0  0  0  0  0  0  0  0  0  0
    0.7145   -2.8875    0.0000 C   0  0  0  0  0  0  0  0  0  0  0  0
  1  2  1  0  0  0  0
  2  3  1  0  0  0  0
  3  4  1  0  0  0  0
  4  5  4  0  0  0  0
  5  6  4  0  0  0  0
  6  7  4  0  0  0  0
  7  8  4  0  0  0  0
  8  9  4  0  0  0  0
  9 10  4  0  0  0  0
 10 11  1  0  0  0  0
 11 12  1  0  0  0  0
 12 13  1  0  0  0  0
 10 14  4  0  0  0  0
 14 15  1  0  0  0  0
 14 16  4  0  0  0  0
 16 17  4  0  0  0  0
  8 17  4  0  0  0  0
 17 18  4  0  0  0  0
 18 19  1  0  0  0  0
 19 20  4  0  0  0  0
 20 21  4  0  0  0  0
 21 22  4  0  0  0  0
 22 23  4  0  0  0  0
 23 24  4  0  0  0  0
 19 24  4  0  0  0  0
 24 25  1  0  0  0  0
 25 26  2  0  0  0  0
 25 27  1  0  0  0  0
 27 28  1  0  0  0  0
 28 29  1  0  0  0  0
 18 30  4  0  0  0  0
  6 30  4  0  0  0  0
 30 31  4  0  0  0  0
 31 32  4  0  0  0  0
  4 32  4  0  0  0  0
 32 33  1  0  0  0  0
M  CHG  1   7   1
M  END
> <activity>
91.8

> <InChiKey>
BRIVWQJCHBUVLE-UHFFFAOYSA-N

$$$$

  Mrv2220 08292413132D          

 36 39  0  0  0  0            999 V2000
   -2.8579   -0.8250    0.0000 O   0  0  0  0  0  0  0  0  0  0  0  0
   -2.8579   -0.0000    0.0000 C   0  0  0  0  0  0  0  0  0  0  0  0
   -2.1434    0.4125    0.0000 C   0  0  0  0  0  0  0  0  0  0  0  0
   -1.4289   -0.0000    0.0000 C   0  0  0  0  0  0  0  0  0  0  0  0
   -0.7145    0.4125    0.0000 C   0  0  0  0  0  0  0  0  0  0  0  0
   -0.0000   -0.0000    0.0000 C   0  0  0  0  0  0  0  0  0  0  0  0
    0.7145    0.4125    0.0000 C   0  0  0  0  0  0  0  0  0  0  0  0
    1.4289   -0.0000    0.0000 C   0  0  0  0  0  0  0  0  0  0  0  0
    2.1434    0.4125    0.0000 C   0  0  0  0  0  0  0  0  0  0  0  0
    2.8579   -0.0000    0.0000 C   0  0  0  0  0  0  0  0  0  0  0  0
    3.5724    0.4125    0.0000 C   0  0  0  0  0  0  0  0  0  0  0  0
    3.5724    1.2375    0.0000 C   0  0  0  0  0  0  0  0  0  0  0  0
    4.2868    1.6500    0.0000 C   0  0  0  0  0  0  0  0  0  0  0  0
    5.0013    1.2375    0.0000 C   0  0  0  0  0  0  0  0  0  0  0  0
    5.0013    0.4125    0.0000 N   0  0  0  0  0  0  0  0  0  0  0  0
    4.2868   -0.0000    0.0000 C   0  0  0  0  0  0  0  0  0  0  0  0
   -3.5724    0.4125    0.0000 N   0  0  0  0  0  0  0  0  0  0  0  0
   -4.2868   -0.0000    0.0000 C   0  0  0  0  0  0  0  0  0  0  0  0
   -5.0013    0.4125    0.0000 C   0  0  0  0  0  0  0  0  0  0  0  0
   -5.0013    1.2375    0.0000 C   0  0  0  0  0  0  0  0  0  0  0  0
   -5.7158    1.6500    0.0000 C   0  0  0  0  0  0  0  0  0  0  0  0
   -6.4302    1.2375    0.0000 C   0  0  0  0  0  0  0  0  0  0  0  0
   -7.1447    1.6500    0.0000 C   0  0  0  0  0  0  0  0  0  0  0  0
   -7.8592    1.2375    0.0000 C   0  0  0  0  0  0  0  0  0  0  0  0
   -8.5737    1.6500    0.0000 C   0  0  0  0  0  0  0  0  0  0  0  0
   -8.5737    2.4750    0.0000 C   0  0  0  0  0  0  0  0  0  0  0  0
   -7.8592    2.8875    0.0000 C   0  0  0  0  0  0  0  0  0  0  0  0
   -7.1447    2.4750    0.0000 C   0  0  0  0  0  0  0  0  0  0  0  0
   -6.4302    0.4125    0.0000 C   0  0  0  0  0  0  0  0  0  0  0  0
   -5.7158   -0.0000    0.0000 C   0  0  0  0  0  0  0  0  0  0  0  0
   -5.7158   -0.8250    0.0000 C   0  0  0  0  0  0  0  0  0  0  0  0
   -6.4302   -1.2375    0.0000 C   0  0  0  0  0  0  0  0  0  0  0  0
   -7.1447   -0.8250    0.0000 C   0  0  0  0  0  0  0  0  0  0  0  0
   -7.1447   -0.0000    0.0000 C   0  0  0  0  0  0  0  0  0  0  0  0
   -4.2868    1.6500    0.0000 C   0  0  0  0  0  0  0  0  0  0  0  0
   -3.5724    1.2375    0.0000 C   0  0  0  0  0  0  0  0  0  0  0  0
  1  2  2  0  0  0  0
  2  3  1  0  0  0  0
  3  4  1  0  0  0  0
  4  5  1  0  0  0  0
  5  6  1  0  0  0  0
  6  7  1  0  0  0  0
  7  8  1  0  0  0  0
  8  9  1  0  0  0  0
  9 10  1  0  0  0  0
 10 11  1  0  0  0  0
 11 12  4  0  0  0  0
 12 13  4  0  0  0  0
 13 14  4  0  0  0  0
 14 15  4  0  0  0  0
 15 16  4  0  0  0  0
 11 16  4  0  0  0  0
  2 17  1  0  0  0  0
 17 18  1  0  0  0  0
 18 19  1  0  0  0  0
 19 20  1  0  0  0  0
 20 21  1  0  0  0  0
 21 22  2  0  0  0  0
 22 23  1  0  0  0  0
 23 24  4  0  0  0  0
 24 25  4  0  0  0  0
 25 26  4  0  0  0  0
 26 27  4  0  0  0  0
 27 28  4  0  0  0  0
 23 28  4  0  0  0  0
 22 29  1  0  0  0  0
 29 30  4  0  0  0  0
 30 31  4  0  0  0  0
 31 32  4  0  0  0  0
 32 33  4  0  0  0  0
 33 34  4  0  0  0  0
 29 34  4  0  0  0  0
 20 35  1  0  0  0  0
 35 36  1  0  0  0  0
 17 36  1  0  0  0  0
M  END
> <activity>
-38.3

> <InChiKey>
NHKWRRHZTGQJMT-UHFFFAOYSA-N

$$$$

  Mrv2220 08292413132D          

 14 14  0  0  0  0            999 V2000
    0.5678    1.9393    0.0000 C   0  0  0  0  0  0  0  0  0  0  0  0
    0.5678    1.1143    0.0000 N   0  0  0  0  0  0  0  0  0  0  0  0
    1.2352    0.6294    0.0000 C   0  0  0  0  0  0  0  0  0  0  0  0
    2.0198    0.8843    0.0000 N   0  3  0  0  0  0  0  0  0  0  0  0
    2.6329    0.3323    0.0000 O   0  0  0  0  0  0  0  0  0  0  0  0
    2.1913    1.6913    0.0000 O   0  5  0  0  0  0  0  0  0  0  0  0
    0.9803   -0.1553    0.0000 C   0  0  0  0  0  0  0  0  0  0  0  0
    0.1553   -0.1553    0.0000 N   0  0  0  0  0  0  0  0  0  0  0  0
   -0.0997    0.6294    0.0000 C   0  0  0  0  0  0  0  0  0  0  0  0
   -0.8843    0.8843    0.0000 C   0  0  0  0  0  0  0  0  0  0  0  0
   -1.4974    0.3323    0.0000 O   0  0  0  0  0  0  0  0  0  0  0  0
   -2.2820    0.5872    0.0000 C   0  0  0  0  0  0  0  0  0  0  0  0
   -2.8951    0.0352    0.0000 N   0  0  0  0  0  0  0  0  0  0  0  0
   -2.4535    1.3942    0.0000 O   0  0  0  0  0  0  0  0  0  0  0  0
  1  2  1  0  0  0  0
  2  3  4  0  0  0  0
  3  4  1  0  0  0  0
  4  5  2  0  0  0  0
  4  6  1  0  0  0  0
  3  7  4  0  0  0  0
  7  8  4  0  0  0  0
  8  9  4  0  0  0  0
  2  9  4  0  0  0  0
  9 10  1  0  0  0  0
 10 11  1  0  0  0  0
 11 12  1  0  0  0  0
 12 13  1  0  0  0  0
 12 14  2  0  0  0  0
M  CHG  2   4   1   6  -1
M  END
> <activity>
9.7

> <InChiKey>
PQFRTXSWDXZRRS-UHFFFAOYSA-N

$$$$

  Mrv2220 08292413132D          

 12 12  0  0  0  0            999 V2000
    0.0000    3.3000    0.0000 C   0  0  0  0  0  0  0  0  0  0  0  0
    0.0000    2.4750    0.0000 C   0  0  0  0  0  0  0  0  0  0  0  0
   -0.7145    2.0625    0.0000 C   0  0  0  0  0  0  0  0  0  0  0  0
    0.7145    2.0625    0.0000 N   0  0  0  0  0  0  0  0  0  0  0  0
    0.7145    1.2375    0.0000 C   0  0  0  0  0  0  0  0  0  0  0  0
    1.4289    0.8250    0.0000 N   0  0  0  0  0  0  0  0  0  0  0  0
    1.4289   -0.0000    0.0000 C   0  0  0  0  0  0  0  0  0  0  0  0
    2.1434   -0.4125    0.0000 N   0  0  0  0  0  0  0  0  0  0  0  0
    0.7145   -0.4125    0.0000 N   0  0  0  0  0  0  0  0  0  0  0  0
    0.0000    0.0000    0.0000 C   0  0  0  0  0  0  0  0  0  0  0  0
   -0.7145   -0.4125    0.0000 Cl  0  0  0  0  0  0  0  0  0  0  0  0
    0.0000    0.8250    0.0000 N   0  0  0  0  0  0  0  0  0  0  0  0
  1  2  1  0  0  0  0
  2  3  1  0  0  0  0
  2  4  1  0  0  0  0
  4  5  1  0  0  0  0
  5  6  4  0  0  0  0
  6  7  4  0  0  0  0
  7  8  1  0  0  0  0
  7  9  4  0  0  0  0
  9 10  4  0  0  0  0
 10 11  1  0  0  0  0
 10 12  4  0  0  0  0
  5 12  4  0  0  0  0
M  END
> <activity>
15.8

> <InChiKey>
DFWFIQKMSFGDCQ-UHFFFAOYSA-N

$$$$

  Mrv2220 08292413132D          

 10 10  0  0  0  0            999 V2000
    0.0000    2.4750    0.0000 O   0  0  0  0  0  0  0  0  0  0  0  0
    0.7145    2.0625    0.0000 C   0  0  0  0  0  0  0  0  0  0  0  0
    1.4289    2.4750    0.0000 O   0  0  0  0  0  0  0  0  0  0  0  0
    0.7145    1.2375    0.0000 C   0  0  0  0  0  0  0  0  0  0  0  0
    1.4289    0.8250    0.0000 C   0  0  0  0  0  0  0  0  0  0  0  0
    1.4289   -0.0000    0.0000 C   0  0  0  0  0  0  0  0  0  0  0  0
    0.7145   -0.4125    0.0000 C   0  0  0  0  0  0  0  0  0  0  0  0
    0.0000    0.0000    0.0000 C   0  0  0  0  0  0  0  0  0  0  0  0
    0.0000    0.8250    0.0000 C   0  0  0  0  0  0  0  0  0  0  0  0
   -0.7145    1.2375    0.0000 O   0  0  0  0  0  0  0  0  0  0  0  0
  1  2  2  0  0  0  0
  2  3  1  0  0  0  0
  2  4  1  0  0  0  0
  4  5  4  0  0  0  0
  5  6  4  0  0  0  0
  6  7  4  0  0  0  0
  7  8  4  0  0  0  0
  8  9  4  0  0  0  0
  4  9  4  0  0  0  0
  9 10  1  0  0  0  0
M  END
> <activity>
55.9

> <InChiKey>
YGSDEFSMJLZEOE-UHFFFAOYSA-N

$$$$

  Mrv2220 08292413132D          

 35 37  0  0  0  0            999 V2000
   -7.8592   -1.2375    0.0000 C   0  0  0  0  0  0  0  0  0  0  0  0
   -7.1447   -0.8250    0.0000 C   0  0  0  0  0  0  0  0  0  0  0  0
   -6.4302   -1.2375    0.0000 O   0  0  0  0  0  0  0  0  0  0  0  0
   -5.7158   -0.8250    0.0000 C   0  0  0  0  0  0  0  0  0  0  0  0
   -5.7158   -0.0000    0.0000 O   0  0  0  0  0  0  0  0  0  0  0  0
   -5.0013   -1.2375    0.0000 C   0  0  0  0  0  0  0  0  0  0  0  0
   -4.2868   -0.8250    0.0000 C   0  0  0  0  0  0  0  0  0  0  0  0
   -3.5724   -1.2375    0.0000 C   0  0  0  0  0  0  0  0  0  0  0  0
   -3.5724   -2.0625    0.0000 C   0  0  0  0  0  0  0  0  0  0  0  0
   -2.8579   -2.4750    0.0000 C   0  0  0  0  0  0  0  0  0  0  0  0
   -2.1434   -2.0625    0.0000 C   0  0  0  0  0  0  0  0  0  0  0  0
   -1.4289   -2.4750    0.0000 C   0  0  0  0  0  0  0  0  0  0  0  0
   -1.4289   -3.3000    0.0000 C   0  0  0  0  0  0  0  0  0  0  0  0
   -0.7145   -3.7125    0.0000 N   0  0  0  0  0  0  0  0  0  0  0  0
    0.0000   -3.3000    0.0000 C   0  0  0  0  0  0  0  0  0  0  0  0
    0.7145   -3.7125    0.0000 C   0  0  0  0  0  0  0  0  0  0  0  0
    0.7145   -4.5375    0.0000 O   0  0  0  0  0  0  0  0  0  0  0  0
    1.4289   -3.3000    0.0000 C   0  0  0  0  0  0  0  0  0  0  0  0
    2.1434   -3.7125    0.0000 O   0  0  0  0  0  0  0  0  0  0  0  0
    2.8579   -3.3000    0.0000 C   0  0  0  0  0  0  0  0  0  0  0  0
    2.8579   -2.4750    0.0000 C   0  0  0  0  0  0  0  0  0  0  0  0
    3.5724   -2.0625    0.0000 C   0  0  0  0  0  0  0  0  0  0  0  0
    4.2868   -2.4750    0.0000 C   0  0  0  0  0  0  0  0  0  0  0  0
    5.0013   -2.0625    0.0000 O   0  0  0  0  0  0  0  0  0  0  0  0
    4.2868   -3.3000    0.0000 C   0  0  0  0  0  0  0  0  0  0  0  0
    5.0013   -3.7125    0.0000 N   0  0  0  0  0  0  0  0  0  0  0  0
    5.7158   -3.3000    0.0000 S   0  0  0  0  0  0  0  0  0  0  0  0
    6.4302   -2.8875    0.0000 C   0  0  0  0  0  0  0  0  0  0  0  0
    6.1283   -4.0145    0.0000 O   0  0  0  0  0  0  0  0  0  0  0  0
    5.3033   -2.5855    0.0000 O   0  0  0  0  0  0  0  0  0  0  0  0
    3.5724   -3.7125    0.0000 C   0  0  0  0  0  0  0  0  0  0  0  0
   -2.1434   -3.7125    0.0000 C   0  0  0  0  0  0  0  0  0  0  0  0
   -2.8579   -3.3000    0.0000 C   0  0  0  0  0  0  0  0  0  0  0  0
   -4.2868   -2.4750    0.0000 C   0  0  0  0  0  0  0  0  0  0  0  0
   -5.0013   -2.0625    0.0000 C   0  0  0  0  0  0  0  0  0  0  0  0
  1  2  1  0  0  0  0
  2  3  1  0  0  0  0
  3  4  1  0  0  0  0
  4  5  2  0  0  0  0
  4  6  1  0  0  0  0
  6  7  4  0  0  0  0
  7  8  4  0  0  0  0
  8  9  4  0  0  0  0
  9 10  1  0  0  0  0
 10 11  1  0  0  0  0
 11 12  1  0  0  0  0
 12 13  1  0  0  0  0
 13 14  1  0  0  0  0
 14 15  1  0  0  0  0
 15 16  1  0  0  0  0
 16 17  1  0  0  0  0
 16 18  1  0  0  0  0
 18 19  1  0  0  0  0
 19 20  1  0  0  0  0
 20 21  4  0  0  0  0
 21 22  4  0  0  0  0
 22 23  4  0  0  0  0
 23 24  1  0  0  0  0
 23 25  4  0  0  0  0
 25 26  1  0  0  0  0
 26 27  1  0  0  0  0
 27 28  1  0  0  0  0
 27 29  2  0  0  0  0
 27 30  2  0  0  0  0
 25 31  4  0  0  0  0
 20 31  4  0  0  0  0
 13 32  1  0  0  0  0
 32 33  1  0  0  0  0
 10 33  1  0  0  0  0
  9 34  4  0  0  0  0
 34 35  4  0  0  0  0
  6 35  4  0  0  0  0
M  END
> <activity>
61.4

> <InChiKey>
WCPJDRQPTLGHOD-UHFFFAOYSA-N

$$$$

  Mrv2220 08292413132D          

 37 41  0  0  0  0            999 V2000
   -2.7807    1.7549    0.0000 C   0  0  0  0  0  0  0  0  0  0  0  0
   -2.4451    1.0012    0.0000 C   0  0  0  0  0  0  0  0  0  0  0  0
   -1.6381    0.8297    0.0000 N   0  0  0  0  0  0  0  0  0  0  0  0
   -1.5519    0.0092    0.0000 C   0  0  0  0  0  0  0  0  0  0  0  0
   -0.8374   -0.4033    0.0000 C   0  0  0  0  0  0  0  0  0  0  0  0
   -0.8374   -1.2283    0.0000 C   0  0  0  0  0  0  0  0  0  0  0  0
   -0.1230   -1.6408    0.0000 C   0  0  0  0  0  0  0  0  0  0  0  0
    0.5915   -1.2283    0.0000 C   0  0  0  0  0  0  0  0  0  0  0  0
    0.5915   -0.4033    0.0000 C   0  0  0  0  0  0  0  0  0  0  0  0
   -0.1230    0.0092    0.0000 C   0  0  0  0  0  0  0  0  0  0  0  0
    1.2365    0.1111    0.0000 C   0  0  0  0  0  0  0  0  0  0  0  0
    2.0408   -0.0725    0.0000 C   0  0  0  0  0  0  0  0  0  0  0  0
    2.3988   -0.8158    0.0000 N   0  0  0  0  0  0  0  0  0  0  0  0
    3.2238   -0.8158    0.0000 C   0  0  0  0  0  0  0  0  0  0  0  0
    3.6363   -0.1013    0.0000 C   0  0  0  0  0  0  0  0  0  0  0  0
    4.4613   -0.1013    0.0000 C   0  0  0  0  0  0  0  0  0  0  0  0
    4.8738    0.6132    0.0000 C   0  0  0  0  0  0  0  0  0  0  0  0
    5.6988    0.6132    0.0000 C   0  0  0  0  0  0  0  0  0  0  0  0
    6.1113   -0.1013    0.0000 C   0  0  0  0  0  0  0  0  0  0  0  0
    6.9363   -0.1013    0.0000 N   0  0  0  0  0  0  0  0  0  0  0  0
    7.3488    0.6132    0.0000 C   0  0  0  0  0  0  0  0  0  0  0  0
    6.9363    1.3276    0.0000 O   0  0  0  0  0  0  0  0  0  0  0  0
    8.1738    0.6132    0.0000 C   0  0  0  0  0  0  0  0  0  0  0  0
    8.5863    1.3276    0.0000 C   0  0  0  0  0  0  0  0  0  0  0  0
    9.4113    1.3276    0.0000 C   0  0  0  0  0  0  0  0  0  0  0  0
    9.8238    2.0421    0.0000 C   0  0  0  0  0  0  0  0  0  0  0  0
   10.6488    2.0421    0.0000 C   0  0  0  0  0  0  0  0  0  0  0  0
   11.0613    1.3276    0.0000 C   0  0  0  0  0  0  0  0  0  0  0  0
   11.8863    1.3276    0.0000 F   0  0  0  0  0  0  0  0  0  0  0  0
   10.6488    0.6132    0.0000 C   0  0  0  0  0  0  0  0  0  0  0  0
    9.8238    0.6132    0.0000 C   0  0  0  0  0  0  0  0  0  0  0  0
    5.6988   -0.8158    0.0000 C   0  0  0  0  0  0  0  0  0  0  0  0
    4.8738   -0.8158    0.0000 C   0  0  0  0  0  0  0  0  0  0  0  0
    2.0408   -1.5591    0.0000 C   0  0  0  0  0  0  0  0  0  0  0  0
    1.2365   -1.7427    0.0000 C   0  0  0  0  0  0  0  0  0  0  0  0
   -2.3056   -0.3263    0.0000 N   0  0  0  0  0  0  0  0  0  0  0  0
   -2.8576    0.2868    0.0000 O   0  0  0  0  0  0  0  0  0  0  0  0
  1  2  1  0  0  0  0
  2  3  4  0  0  0  0
  3  4  4  0  0  0  0
  4  5  1  0  0  0  0
  5  6  4  0  0  0  0
  6  7  4  0  0  0  0
  7  8  4  0  0  0  0
  8  9  4  0  0  0  0
  9 10  4  0  0  0  0
  5 10  4  0  0  0  0
  9 11  1  0  0  0  0
 11 12  1  0  0  0  0
 12 13  1  0  0  0  0
 13 14  1  0  0  0  0
 14 15  1  0  0  0  0
 15 16  1  0  0  0  0
 16 17  1  0  0  0  0
 17 18  1  0  0  0  0
 18 19  1  0  0  0  0
 19 20  1  0  0  0  0
 20 21  1  0  0  0  0
 21 22  2  0  0  0  0
 23 21  1  4  0  0  0
 23 24  2  0  0  0  0
 24 25  1  0  0  0  0
 25 26  4  0  0  0  0
 26 27  4  0  0  0  0
 27 28  4  0  0  0  0
 28 29  1  0  0  0  0
 28 30  4  0  0  0  0
 30 31  4  0  0  0  0
 25 31  4  0  0  0  0
 19 32  1  0  0  0  0
 32 33  1  0  0  0  0
 16 33  1  0  0  0  0
 13 34  1  0  0  0  0
 34 35  1  0  0  0  0
  8 35  1  0  0  0  0
  4 36  4  0  0  0  0
 36 37  4  0  0  0  0
  2 37  4  0  0  0  0
M  END
> <activity>
-24.0

> <InChiKey>
IRGFNBRYIWLUOO-UHFFFAOYSA-N

$$$$

  Mrv2220 08292413132D          

 22 22  0  0  0  0            999 V2000
   -1.4289   -0.8250    0.0000 C   0  0  0  0  0  0  0  0  0  0  0  0
   -1.4289   -0.0000    0.0000 C   0  0  0  0  0  0  0  0  0  0  0  0
   -2.1434    0.4125    0.0000 C   0  0  0  0  0  0  0  0  0  0  0  0
   -2.1434    1.2375    0.0000 C   0  0  0  0  0  0  0  0  0  0  0  0
   -2.8579    1.6500    0.0000 N   0  0  0  0  0  0  0  0  0  0  0  0
   -3.5724    1.2375    0.0000 O   0  0  0  0  0  0  0  0  0  0  0  0
   -4.2868    1.6500    0.0000 C   0  0  0  0  0  0  0  0  0  0  0  0
   -5.0013    1.2375    0.0000 C   0  0  0  0  0  0  0  0  0  0  0  0
   -1.4289    1.6500    0.0000 C   0  0  0  0  0  0  0  0  0  0  0  0
   -1.4289    2.4750    0.0000 C   0  0  0  0  0  0  0  0  0  0  0  0
   -2.1434    2.8875    0.0000 O   0  0  0  0  0  0  0  0  0  0  0  0
   -0.7145    2.8875    0.0000 C   0  0  0  0  0  0  0  0  0  0  0  0
    0.0000    2.4750    0.0000 C   0  0  0  0  0  0  0  0  0  0  0  0
    0.7145    2.8875    0.0000 C   0  0  0  0  0  0  0  0  0  0  0  0
    1.4289    2.4750    0.0000 C   0  0  0  0  0  0  0  0  0  0  0  0
    1.4289    1.6500    0.0000 C   0  0  0  0  0  0  0  0  0  0  0  0
    2.1434    2.8875    0.0000 S   0  0  0  0  0  0  0  0  0  0  0  0
    2.8579    2.4750    0.0000 C   0  0  0  0  0  0  0  0  0  0  0  0
    3.5724    2.8875    0.0000 C   0  0  0  0  0  0  0  0  0  0  0  0
    0.0000    1.6500    0.0000 C   0  0  0  0  0  0  0  0  0  0  0  0
   -0.7145    1.2375    0.0000 C   0  0  0  0  0  0  0  0  0  0  0  0
   -0.7145    0.4125    0.0000 O   0  0  0  0  0  0  0  0  0  0  0  0
  1  2  1  0  0  0  0
  2  3  1  0  0  0  0
  3  4  1  0  0  0  0
  4  5  2  0  0  0  0
  5  6  1  4  0  0  0
  6  7  1  0  0  0  0
  7  8  1  0  0  0  0
  4  9  1  0  0  0  0
  9 10  2  0  0  0  0
 10 11  1  0  0  0  0
 10 12  1  0  0  0  0
 12 13  1  0  0  0  0
 13 14  1  0  0  0  0
 14 15  1  0  0  0  0
 15 16  1  0  0  0  0
 15 17  1  0  0  0  0
 17 18  1  0  0  0  0
 18 19  1  0  0  0  0
 13 20  1  0  0  0  0
 20 21  1  0  0  0  0
  9 21  1  0  0  0  0
 21 22  2  0  0  0  0
M  END
> <activity>
55.5

> <InChiKey>
CSPPKDPQLUUTND-UHFFFAOYSA-N

$$$$

  Mrv2220 08292413132D          

 20 19  0  0  0  0            999 V2000
    0.6974    2.9487    0.0000 C   0  0  0  0  0  0  0  0  0  0  0  0
    1.2375    3.5724    0.0000 C   0  0  0  0  0  0  0  0  0  0  0  0
    0.9675    4.3519    0.0000 C   0  0  0  0  0  0  0  0  0  0  0  0
    2.0476    3.4164    0.0000 C   0  0  0  0  0  0  0  0  0  0  0  0
    2.5877    4.0401    0.0000 O   0  0  0  0  0  0  0  0  0  0  0  0
    3.3979    3.8842    0.0000 C   0  0  0  0  0  0  0  0  0  0  0  0
    3.6679    3.1046    0.0000 O   0  0  0  0  0  0  0  0  0  0  0  0
    3.9379    4.5078    0.0000 C   0  0  0  0  0  0  0  0  0  0  0  0
    4.7481    4.3519    0.0000 C   0  0  0  0  0  0  0  0  0  0  0  0
    5.2882    4.9755    0.0000 C   0  0  0  0  0  0  0  0  0  0  0  0
    5.0181    5.7551    0.0000 O   0  0  0  0  0  0  0  0  0  0  0  0
    6.0983    4.8196    0.0000 O   0  0  0  0  0  0  0  0  0  0  0  0
    6.6384    5.4433    0.0000 C   0  0  0  0  0  0  0  0  0  0  0  0
    7.4485    5.2874    0.0000 C   0  0  0  0  0  0  0  0  0  0  0  0
    7.9886    5.9110    0.0000 C   0  0  0  0  0  0  0  0  0  0  0  0
    7.7186    4.5078    0.0000 C   0  0  0  0  0  0  0  0  0  0  0  0
    5.0181    3.5724    0.0000 S   0  0  0  0  0  0  0  0  0  0  0  0
    4.2386    3.3023    0.0000 O   0  0  0  0  0  0  0  0  0  0  0  0
    5.7977    3.8424    0.0000 O   0  0  0  0  0  0  0  0  0  0  0  0
    5.2882    2.7928    0.0000 O   0  0  0  0  0  0  0  0  0  0  0  0
  1  2  1  0  0  0  0
  2  3  1  0  0  0  0
  2  4  1  0  0  0  0
  4  5  1  0  0  0  0
  5  6  1  0  0  0  0
  6  7  2  0  0  0  0
  6  8  1  0  0  0  0
  8  9  1  0  0  0  0
  9 10  1  0  0  0  0
 10 11  2  0  0  0  0
 10 12  1  0  0  0  0
 12 13  1  0  0  0  0
 13 14  1  0  0  0  0
 14 15  1  0  0  0  0
 14 16  1  0  0  0  0
  9 17  1  0  0  0  0
 17 18  2  0  0  0  0
 17 19  2  0  0  0  0
 17 20  1  0  0  0  0
M  END
> <activity>
66.3

> <InChiKey>
NNARPPSIYMCXMB-UHFFFAOYSA-N

$$$$

  Mrv2220 08292413132D          

 11 11  0  0  0  0            999 V2000
    0.7145    2.0625    0.0000 C   0  0  0  0  0  0  0  0  0  0  0  0
    0.7145    1.2375    0.0000 C   0  0  0  0  0  0  0  0  0  0  0  0
    1.4289    0.8250    0.0000 C   0  0  0  0  0  0  0  0  0  0  0  0
    1.4289   -0.0000    0.0000 C   0  0  0  0  0  0  0  0  0  0  0  0
    0.7145   -0.4125    0.0000 C   0  0  0  0  0  0  0  0  0  0  0  0
    0.0000    0.0000    0.0000 C   0  0  0  0  0  0  0  0  0  0  0  0
    0.0000    0.8250    0.0000 C   0  0  0  0  0  0  0  0  0  0  0  0
   -0.7145    1.2375    0.0000 S   0  0  0  0  0  0  0  0  0  0  0  0
   -1.4289    1.6500    0.0000 O   0  0  0  0  0  0  0  0  0  0  0  0
   -0.3020    1.9520    0.0000 O   0  0  0  0  0  0  0  0  0  0  0  0
   -1.1270    0.5230    0.0000 O   0  0  0  0  0  0  0  0  0  0  0  0
  1  2  1  0  0  0  0
  2  3  4  0  0  0  0
  3  4  4  0  0  0  0
  4  5  4  0  0  0  0
  5  6  4  0  0  0  0
  6  7  4  0  0  0  0
  2  7  4  0  0  0  0
  7  8  1  0  0  0  0
  8  9  2  0  0  0  0
  8 10  2  0  0  0  0
  8 11  1  0  0  0  0
M  END
> <activity>
10.8

> <InChiKey>
LBLYYCQCTBFVLH-UHFFFAOYSA-N

$$$$

  Mrv2220 08292413132D          

 11 11  0  0  0  0            999 V2000
    0.7145    2.0625    0.0000 C   0  0  0  0  0  0  0  0  0  0  0  0
    0.7145    1.2375    0.0000 C   0  0  0  0  0  0  0  0  0  0  0  0
    1.4289    0.8250    0.0000 C   0  0  0  0  0  0  0  0  0  0  0  0
    1.4289   -0.0000    0.0000 C   0  0  0  0  0  0  0  0  0  0  0  0
    0.7145   -0.4125    0.0000 C   0  0  0  0  0  0  0  0  0  0  0  0
    0.7145   -1.2375    0.0000 S   0  0  0  0  0  0  0  0  0  0  0  0
    0.7145   -2.0625    0.0000 O   0  0  0  0  0  0  0  0  0  0  0  0
   -0.1105   -1.2375    0.0000 O   0  0  0  0  0  0  0  0  0  0  0  0
    1.5395   -1.2375    0.0000 O   0  0  0  0  0  0  0  0  0  0  0  0
    0.0000    0.0000    0.0000 C   0  0  0  0  0  0  0  0  0  0  0  0
    0.0000    0.8250    0.0000 C   0  0  0  0  0  0  0  0  0  0  0  0
  1  2  1  0  0  0  0
  2  3  4  0  0  0  0
  3  4  4  0  0  0  0
  4  5  4  0  0  0  0
  5  6  1  0  0  0  0
  6  7  2  0  0  0  0
  6  8  2  0  0  0  0
  6  9  1  0  0  0  0
  5 10  4  0  0  0  0
 10 11  4  0  0  0  0
  2 11  4  0  0  0  0
M  END
> <activity>
16.6

> <InChiKey>
JOXIMZWYDAKGHI-UHFFFAOYSA-N

$$$$

  Mrv2220 08292413132D          

 18 18  0  0  0  0            999 V2000
    2.1434   -5.3625    0.0000 C   0  0  0  0  0  0  0  0  0  0  0  0
    2.8579   -4.9500    0.0000 C   0  0  0  0  0  0  0  0  0  0  0  0
    3.5724   -5.3625    0.0000 C   0  0  0  0  0  0  0  0  0  0  0  0
    4.2868   -4.9500    0.0000 C   0  0  0  0  0  0  0  0  0  0  0  0
    5.0013   -5.3625    0.0000 C   0  0  0  0  0  0  0  0  0  0  0  0
    5.7158   -4.9500    0.0000 C   0  0  0  0  0  0  0  0  0  0  0  0
    6.4302   -5.3625    0.0000 C   0  0  0  0  0  0  0  0  0  0  0  0
    7.1447   -4.9500    0.0000 C   0  0  0  0  0  0  0  0  0  0  0  0
    7.8592   -5.3625    0.0000 C   0  0  0  0  0  0  0  0  0  0  0  0
    8.5737   -4.9500    0.0000 C   0  0  0  0  0  0  0  0  0  0  0  0
    9.2881   -5.3625    0.0000 C   0  0  0  0  0  0  0  0  0  0  0  0
    9.2881   -6.1875    0.0000 C   0  0  0  0  0  0  0  0  0  0  0  0
   10.0026   -6.6000    0.0000 S   0  0  0  0  0  0  0  0  0  0  0  0
   10.7171   -7.0125    0.0000 O   0  0  0  0  0  0  0  0  0  0  0  0
    9.5901   -7.3145    0.0000 O   0  0  0  0  0  0  0  0  0  0  0  0
   10.4151   -5.8855    0.0000 O   0  0  0  0  0  0  0  0  0  0  0  0
    8.5737   -6.6000    0.0000 C   0  0  0  0  0  0  0  0  0  0  0  0
    7.8592   -6.1875    0.0000 C   0  0  0  0  0  0  0  0  0  0  0  0
  1  2  1  0  0  0  0
  2  3  1  0  0  0  0
  3  4  1  0  0  0  0
  4  5  1  0  0  0  0
  5  6  1  0  0  0  0
  6  7  1  0  0  0  0
  7  8  1  0  0  0  0
  8  9  1  0  0  0  0
  9 10  4  0  0  0  0
 10 11  4  0  0  0  0
 11 12  4  0  0  0  0
 12 13  1  0  0  0  0
 13 14  2  0  0  0  0
 13 15  2  0  0  0  0
 13 16  1  0  0  0  0
 12 17  4  0  0  0  0
 17 18  4  0  0  0  0
  9 18  4  0  0  0  0
M  END
> <activity>
101.3

> <InChiKey>
MSOTUIWEAQEETA-UHFFFAOYSA-N

$$$$

  Mrv2220 08292413132D          

  3  2  0  0  0  0            999 V2000
    1.6500   -0.0000    0.0000 N   0  5  0  0  0  0  0  0  0  0  0  0
    2.4750   -0.0000    0.0000 N   0  3  0  0  0  0  0  0  0  0  0  0
    3.3000    0.0000    0.0000 N   0  5  0  0  0  0  0  0  0  0  0  0
  1  2  2  0  0  0  0
  2  3  2  0  0  0  0
M  CHG  3   1  -1   2   1   3  -1
M  END
> <activity>
6.3

> <InChiKey>
IVRMZWNICZWHMI-UHFFFAOYSA-N

$$$$

  Mrv2220 08292413132D          

  5  4  0  0  0  0            999 V2000
    2.0625   -0.7145    0.0000 O   0  0  0  0  0  0  0  0  0  0  0  0
    1.2375   -0.7145    0.0000 C   0  0  0  0  0  0  0  0  0  0  0  0
    0.8250   -1.4289    0.0000 O   0  0  0  0  0  0  0  0  0  0  0  0
    0.8250    0.0000    0.0000 C   0  0  0  0  0  0  0  0  0  0  0  0
    0.0000    0.0000    0.0000 Cl  0  0  0  0  0  0  0  0  0  0  0  0
  1  2  2  0  0  0  0
  2  3  1  0  0  0  0
  2  4  1  0  0  0  0
  4  5  1  0  0  0  0
M  END
> <activity>
9.3

> <InChiKey>
FOCAUTSVDIKZOP-UHFFFAOYSA-N

$$$$

  Mrv2220 08292413132D          

 15 14  0  0  0  0            999 V2000
    2.2836    2.1434    0.0000 C   0  0  0  0  0  0  0  0  0  0  0  0
    2.9980    2.5559    0.0000 C   0  0  0  0  0  0  0  0  0  0  0  0
    3.7125    2.1434    0.0000 C   0  0  0  0  0  0  0  0  0  0  0  0
    4.4270    2.5559    0.0000 C   0  0  0  0  0  0  0  0  0  0  0  0
    5.1414    2.1434    0.0000 C   0  0  0  0  0  0  0  0  0  0  0  0
    5.8559    2.5559    0.0000 C   0  0  0  0  0  0  0  0  0  0  0  0
    6.5704    2.1434    0.0000 C   0  0  0  0  0  0  0  0  0  0  0  0
    7.2849    2.5559    0.0000 C   0  0  0  0  0  0  0  0  0  0  0  0
    7.9993    2.1434    0.0000 C   0  0  0  0  0  0  0  0  0  0  0  0
    8.7138    2.5559    0.0000 C   0  0  0  0  0  0  0  0  0  0  0  0
    9.4283    2.1434    0.0000 O   0  0  0  0  0  0  0  0  0  0  0  0
   10.1427    2.5559    0.0000 S   0  0  0  0  0  0  0  0  0  0  0  0
   10.8572    2.9684    0.0000 O   0  0  0  0  0  0  0  0  0  0  0  0
   10.5552    1.8414    0.0000 O   0  0  0  0  0  0  0  0  0  0  0  0
    9.7302    3.2704    0.0000 O   0  0  0  0  0  0  0  0  0  0  0  0
  1  2  1  0  0  0  0
  2  3  1  0  0  0  0
  3  4  1  0  0  0  0
  4  5  1  0  0  0  0
  5  6  1  0  0  0  0
  6  7  1  0  0  0  0
  7  8  1  0  0  0  0
  8  9  1  0  0  0  0
  9 10  1  0  0  0  0
 10 11  1  0  0  0  0
 11 12  1  0  0  0  0
 12 13  2  0  0  0  0
 12 14  2  0  0  0  0
 12 15  1  0  0  0  0
M  END
> <activity>
98.9

> <InChiKey>
CSMFSDCPJHNZRY-UHFFFAOYSA-N

$$$$

  Mrv2220 08292413132D          

 12 12  0  0  0  0            999 V2000
    0.7145    2.0625    0.0000 C   0  0  0  0  0  0  0  0  0  0  0  0
    0.7145    1.2375    0.0000 C   0  0  0  0  0  0  0  0  0  0  0  0
    1.4289    0.8250    0.0000 C   0  0  0  0  0  0  0  0  0  0  0  0
    1.4289   -0.0000    0.0000 C   0  0  0  0  0  0  0  0  0  0  0  0
    2.1434   -0.4125    0.0000 O   0  0  0  0  0  0  0  0  0  0  0  0
    0.7145   -0.4125    0.0000 C   0  0  0  0  0  0  0  0  0  0  0  0
    0.7145   -1.2375    0.0000 C   0  0  0  0  0  0  0  0  0  0  0  0
    1.4289   -1.6500    0.0000 C   0  0  0  0  0  0  0  0  0  0  0  0
   -0.0000   -1.6500    0.0000 O   0  0  0  0  0  0  0  0  0  0  0  0
    0.0000    0.0000    0.0000 C   0  0  0  0  0  0  0  0  0  0  0  0
   -0.7145   -0.4125    0.0000 O   0  0  0  0  0  0  0  0  0  0  0  0
    0.0000    0.8250    0.0000 O   0  0  0  0  0  0  0  0  0  0  0  0
  1  2  1  0  0  0  0
  2  3  2  0  0  0  0
  3  4  1  0  0  0  0
  4  5  2  0  0  0  0
  4  6  1  0  0  0  0
  6  7  2  0  0  0  0
  7  8  1  4  0  0  0
  7  9  1  0  0  0  0
  6 10  1  0  0  0  0
 10 11  2  0  0  0  0
 10 12  1  0  0  0  0
  2 12  1  0  0  0  0
M  END
> <activity>
41.7

> <InChiKey>
XFOHQPYIBGPKGL-UHFFFAOYSA-N

$$$$

  Mrv2220 08292413132D          

 17 16  0  0  0  0            999 V2000
    3.5211    2.8579    0.0000 C   0  0  0  0  0  0  0  0  0  0  0  0
    4.2355    3.2704    0.0000 C   0  0  0  0  0  0  0  0  0  0  0  0
    4.9500    2.8579    0.0000 C   0  0  0  0  0  0  0  0  0  0  0  0
    5.6645    3.2704    0.0000 C   0  0  0  0  0  0  0  0  0  0  0  0
    6.3789    2.8579    0.0000 C   0  0  0  0  0  0  0  0  0  0  0  0
    7.0934    3.2704    0.0000 C   0  0  0  0  0  0  0  0  0  0  0  0
    7.8079    2.8579    0.0000 C   0  0  0  0  0  0  0  0  0  0  0  0
    8.5224    3.2704    0.0000 C   0  0  0  0  0  0  0  0  0  0  0  0
    9.2368    2.8579    0.0000 C   0  0  0  0  0  0  0  0  0  0  0  0
    9.9513    3.2704    0.0000 C   0  0  0  0  0  0  0  0  0  0  0  0
   10.6658    2.8579    0.0000 C   0  0  0  0  0  0  0  0  0  0  0  0
   11.3802    3.2704    0.0000 C   0  0  0  0  0  0  0  0  0  0  0  0
   12.0947    2.8579    0.0000 O   0  0  0  0  0  0  0  0  0  0  0  0
   12.8092    3.2704    0.0000 S   0  0  0  0  0  0  0  0  0  0  0  0
   13.5237    3.6829    0.0000 O   0  0  0  0  0  0  0  0  0  0  0  0
   13.2217    2.5559    0.0000 O   0  0  0  0  0  0  0  0  0  0  0  0
   12.3967    3.9849    0.0000 O   0  0  0  0  0  0  0  0  0  0  0  0
  1  2  1  0  0  0  0
  2  3  1  0  0  0  0
  3  4  1  0  0  0  0
  4  5  1  0  0  0  0
  5  6  1  0  0  0  0
  6  7  1  0  0  0  0
  7  8  1  0  0  0  0
  8  9  1  0  0  0  0
  9 10  1  0  0  0  0
 10 11  1  0  0  0  0
 11 12  1  0  0  0  0
 12 13  1  0  0  0  0
 13 14  1  0  0  0  0
 14 15  2  0  0  0  0
 14 16  2  0  0  0  0
 14 17  1  0  0  0  0
M  END
> <activity>
102.3

> <InChiKey>
MOTZDAYCYVMXPC-UHFFFAOYSA-N

$$$$

  Mrv2220 08292413132D          

 13 12  0  0  0  0            999 V2000
    0.8250    1.4289    0.0000 C   0  0  0  0  0  0  0  0  0  0  0  0
    1.2375    2.1434    0.0000 C   0  0  0  0  0  0  0  0  0  0  0  0
    2.0625    2.1434    0.0000 C   0  0  0  0  0  0  0  0  0  0  0  0
    2.4750    2.8579    0.0000 C   0  0  0  0  0  0  0  0  0  0  0  0
    3.3000    2.8579    0.0000 C   0  0  0  0  0  0  0  0  0  0  0  0
    3.7125    2.1434    0.0000 C   0  0  0  0  0  0  0  0  0  0  0  0
    3.3000    1.4289    0.0000 C   0  0  0  0  0  0  0  0  0  0  0  0
    3.7125    3.5724    0.0000 C   0  0  0  0  0  0  0  0  0  0  0  0
    4.5375    3.5724    0.0000 O   0  0  0  0  0  0  0  0  0  0  0  0
    4.9500    4.2868    0.0000 S   0  0  0  0  0  0  0  0  0  0  0  0
    5.3625    5.0013    0.0000 O   0  0  0  0  0  0  0  0  0  0  0  0
    5.6645    3.8743    0.0000 O   0  0  0  0  0  0  0  0  0  0  0  0
    4.2355    4.6993    0.0000 O   0  0  0  0  0  0  0  0  0  0  0  0
  1  2  1  0  0  0  0
  2  3  1  0  0  0  0
  3  4  1  0  0  0  0
  4  5  1  0  0  0  0
  5  6  1  0  0  0  0
  6  7  1  0  0  0  0
  5  8  1  0  0  0  0
  8  9  1  0  0  0  0
  9 10  1  0  0  0  0
 10 11  2  0  0  0  0
 10 12  2  0  0  0  0
 10 13  1  0  0  0  0
M  END
> <activity>
81.3

> <InChiKey>
MHGOKSLTIUHUBF-UHFFFAOYSA-N

$$$$

  Mrv2220 08292413132D          

 21 20  0  0  0  0            999 V2000
    5.9961    4.2868    0.0000 C   0  0  0  0  0  0  0  0  0  0  0  0
    6.7105    4.6993    0.0000 C   0  0  0  0  0  0  0  0  0  0  0  0
    7.4250    4.2868    0.0000 C   0  0  0  0  0  0  0  0  0  0  0  0
    8.1395    4.6993    0.0000 C   0  0  0  0  0  0  0  0  0  0  0  0
    8.8539    4.2868    0.0000 C   0  0  0  0  0  0  0  0  0  0  0  0
    9.5684    4.6993    0.0000 C   0  0  0  0  0  0  0  0  0  0  0  0
   10.2829    4.2868    0.0000 C   0  0  0  0  0  0  0  0  0  0  0  0
   10.9974    4.6993    0.0000 C   0  0  0  0  0  0  0  0  0  0  0  0
   11.7118    4.2868    0.0000 C   0  0  0  0  0  0  0  0  0  0  0  0
   12.4263    4.6993    0.0000 C   0  0  0  0  0  0  0  0  0  0  0  0
   13.1408    4.2868    0.0000 C   0  0  0  0  0  0  0  0  0  0  0  0
   13.8552    4.6993    0.0000 C   0  0  0  0  0  0  0  0  0  0  0  0
   14.5697    4.2868    0.0000 C   0  0  0  0  0  0  0  0  0  0  0  0
   15.2842    4.6993    0.0000 C   0  0  0  0  0  0  0  0  0  0  0  0
   15.9987    4.2868    0.0000 C   0  0  0  0  0  0  0  0  0  0  0  0
   16.7131    4.6993    0.0000 C   0  0  0  0  0  0  0  0  0  0  0  0
   17.4276    4.2868    0.0000 O   0  0  0  0  0  0  0  0  0  0  0  0
   18.1421    4.6993    0.0000 S   0  0  0  0  0  0  0  0  0  0  0  0
   18.8565    5.1118    0.0000 O   0  0  0  0  0  0  0  0  0  0  0  0
   18.5546    3.9849    0.0000 O   0  0  0  0  0  0  0  0  0  0  0  0
   17.7296    5.4138    0.0000 O   0  0  0  0  0  0  0  0  0  0  0  0
  1  2  1  0  0  0  0
  2  3  1  0  0  0  0
  3  4  1  0  0  0  0
  4  5  1  0  0  0  0
  5  6  1  0  0  0  0
  6  7  1  0  0  0  0
  7  8  1  0  0  0  0
  8  9  1  0  0  0  0
  9 10  1  0  0  0  0
 10 11  1  0  0  0  0
 11 12  1  0  0  0  0
 12 13  1  0  0  0  0
 13 14  1  0  0  0  0
 14 15  1  0  0  0  0
 15 16  1  0  0  0  0
 16 17  1  0  0  0  0
 17 18  1  0  0  0  0
 18 19  2  0  0  0  0
 18 20  2  0  0  0  0
 18 21  1  0  0  0  0
M  END
> <activity>
78.0

> <InChiKey>
LPTIRUACFKQDHZ-UHFFFAOYSA-N

$$$$

  Mrv2220 08292413132D          

  6  5  0  0  0  0            999 V2000
    0.8250    1.4289    0.0000 C   0  0  0  0  0  0  0  0  0  0  0  0
    1.2375    0.7145    0.0000 C   0  0  0  0  0  0  0  0  0  0  0  0
    2.0625    0.7145    0.0000 C   0  0  0  0  0  0  0  0  0  0  0  0
    0.8250    0.0000    0.0000 C   0  0  0  0  0  0  0  0  0  0  0  0
    1.2375   -0.7145    0.0000 O   0  0  0  0  0  0  0  0  0  0  0  0
    0.0000    0.0000    0.0000 O   0  0  0  0  0  0  0  0  0  0  0  0
  1  2  2  0  0  0  0
  2  3  1  0  0  0  0
  2  4  1  0  0  0  0
  4  5  2  0  0  0  0
  4  6  1  0  0  0  0
M  END
> <activity>
2.4

> <InChiKey>
CERQOIWHTDAKMF-UHFFFAOYSA-N

$$$$

  Mrv2220 08292413132D          

  6  5  0  0  0  0            999 V2000
    0.1105   -1.2375    0.0000 C   0  0  0  0  0  0  0  0  0  0  0  0
    0.8250   -0.8250    0.0000 O   0  0  0  0  0  0  0  0  0  0  0  0
    0.8250    0.0000    0.0000 S   0  0  0  0  0  0  0  0  0  0  0  0
    0.8250    0.8250    0.0000 O   0  0  0  0  0  0  0  0  0  0  0  0
    1.6500   -0.0000    0.0000 O   0  0  0  0  0  0  0  0  0  0  0  0
    0.0000    0.0000    0.0000 O   0  0  0  0  0  0  0  0  0  0  0  0
  1  2  1  0  0  0  0
  2  3  1  0  0  0  0
  3  4  2  0  0  0  0
  3  5  2  0  0  0  0
  3  6  1  0  0  0  0
M  END
> <activity>
11.3

> <InChiKey>
JZMJDSHXVKJFKW-UHFFFAOYSA-N

$$$$

  Mrv2220 08292413132D          

 19 18  0  0  0  0            999 V2000
    4.7586    3.5724    0.0000 C   0  0  0  0  0  0  0  0  0  0  0  0
    5.4730    3.9849    0.0000 C   0  0  0  0  0  0  0  0  0  0  0  0
    6.1875    3.5724    0.0000 C   0  0  0  0  0  0  0  0  0  0  0  0
    6.9020    3.9849    0.0000 C   0  0  0  0  0  0  0  0  0  0  0  0
    7.6164    3.5724    0.0000 C   0  0  0  0  0  0  0  0  0  0  0  0
    8.3309    3.9849    0.0000 C   0  0  0  0  0  0  0  0  0  0  0  0
    9.0454    3.5724    0.0000 C   0  0  0  0  0  0  0  0  0  0  0  0
    9.7599    3.9849    0.0000 C   0  0  0  0  0  0  0  0  0  0  0  0
   10.4743    3.5724    0.0000 C   0  0  0  0  0  0  0  0  0  0  0  0
   11.1888    3.9849    0.0000 C   0  0  0  0  0  0  0  0  0  0  0  0
   11.9033    3.5724    0.0000 C   0  0  0  0  0  0  0  0  0  0  0  0
   12.6177    3.9849    0.0000 C   0  0  0  0  0  0  0  0  0  0  0  0
   13.3322    3.5724    0.0000 C   0  0  0  0  0  0  0  0  0  0  0  0
   14.0467    3.9849    0.0000 C   0  0  0  0  0  0  0  0  0  0  0  0
   14.7612    3.5724    0.0000 O   0  0  0  0  0  0  0  0  0  0  0  0
   15.4756    3.9849    0.0000 S   0  0  0  0  0  0  0  0  0  0  0  0
   16.1901    4.3974    0.0000 O   0  0  0  0  0  0  0  0  0  0  0  0
   15.8881    3.2704    0.0000 O   0  0  0  0  0  0  0  0  0  0  0  0
   15.0631    4.6993    0.0000 O   0  0  0  0  0  0  0  0  0  0  0  0
  1  2  1  0  0  0  0
  2  3  1  0  0  0  0
  3  4  1  0  0  0  0
  4  5  1  0  0  0  0
  5  6  1  0  0  0  0
  6  7  1  0  0  0  0
  7  8  1  0  0  0  0
  8  9  1  0  0  0  0
  9 10  1  0  0  0  0
 10 11  1  0  0  0  0
 11 12  1  0  0  0  0
 12 13  1  0  0  0  0
 13 14  1  0  0  0  0
 14 15  1  0  0  0  0
 15 16  1  0  0  0  0
 16 17  2  0  0  0  0
 16 18  2  0  0  0  0
 16 19  1  0  0  0  0
M  END
> <activity>
98.8

> <InChiKey>
URLJMZWTXZTZRR-UHFFFAOYSA-N

$$$$

  Mrv2220 08292413132D          

  5  4  0  0  0  0            999 V2000
    0.8250   -0.8250    0.0000 F   0  0  0  0  0  0  0  0  0  0  0  0
    0.8250    0.0000    0.0000 B   0  5  0  0  0  0  0  0  0  0  0  0
    0.8250    0.8250    0.0000 F   0  0  0  0  0  0  0  0  0  0  0  0
    1.6500   -0.0000    0.0000 F   0  0  0  0  0  0  0  0  0  0  0  0
    0.0000    0.0000    0.0000 F   0  0  0  0  0  0  0  0  0  0  0  0
  1  2  1  0  0  0  0
  2  3  1  0  0  0  0
  2  4  1  0  0  0  0
  2  5  1  0  0  0  0
M  CHG  1   2  -1
M  END
> <activity>
8.5

> <InChiKey>
ODGCEQLVLXJUCC-UHFFFAOYSA-N

$$$$

  Mrv2220 08292413132D          

 18 17  0  0  0  0            999 V2000
    5.4730    3.9849    0.0000 C   0  0  0  0  0  0  0  0  0  0  0  0
    6.1875    3.5724    0.0000 C   0  0  0  0  0  0  0  0  0  0  0  0
    6.9020    3.9849    0.0000 C   0  0  0  0  0  0  0  0  0  0  0  0
    7.6164    3.5724    0.0000 C   0  0  0  0  0  0  0  0  0  0  0  0
    8.3309    3.9849    0.0000 C   0  0  0  0  0  0  0  0  0  0  0  0
    9.0454    3.5724    0.0000 C   0  0  0  0  0  0  0  0  0  0  0  0
    9.7599    3.9849    0.0000 C   0  0  0  0  0  0  0  0  0  0  0  0
   10.4743    3.5724    0.0000 C   0  0  0  0  0  0  0  0  0  0  0  0
   11.1888    3.9849    0.0000 C   0  0  0  0  0  0  0  0  0  0  0  0
   11.9033    3.5724    0.0000 C   0  0  0  0  0  0  0  0  0  0  0  0
   12.6177    3.9849    0.0000 C   0  0  0  0  0  0  0  0  0  0  0  0
   13.3322    3.5724    0.0000 C   0  0  0  0  0  0  0  0  0  0  0  0
   14.0467    3.9849    0.0000 C   0  0  0  0  0  0  0  0  0  0  0  0
   14.7612    3.5724    0.0000 O   0  0  0  0  0  0  0  0  0  0  0  0
   15.4756    3.9849    0.0000 S   0  0  0  0  0  0  0  0  0  0  0  0
   16.1901    4.3974    0.0000 O   0  0  0  0  0  0  0  0  0  0  0  0
   15.8881    3.2704    0.0000 O   0  0  0  0  0  0  0  0  0  0  0  0
   15.0631    4.6993    0.0000 O   0  0  0  0  0  0  0  0  0  0  0  0
  1  2  1  0  0  0  0
  2  3  1  0  0  0  0
  3  4  1  0  0  0  0
  4  5  1  0  0  0  0
  5  6  1  0  0  0  0
  6  7  1  0  0  0  0
  7  8  1  0  0  0  0
  8  9  1  0  0  0  0
  9 10  1  0  0  0  0
 10 11  1  0  0  0  0
 11 12  1  0  0  0  0
 12 13  1  0  0  0  0
 13 14  1  0  0  0  0
 14 15  1  0  0  0  0
 15 16  2  0  0  0  0
 15 17  2  0  0  0  0
 15 18  1  0  0  0  0
M  END
> <activity>
104.5

> <InChiKey>
QTUIJRIDZOSXHJ-UHFFFAOYSA-N

$$$$

  Mrv2220 08292413132D          

 27 29  0  0  0  0            999 V2000
    1.8044   -3.3934    0.0000 C   0  0  0  0  0  0  0  0  0  0  0  0
    0.9974   -3.2219    0.0000 C   0  0  0  0  0  0  0  0  0  0  0  0
    0.7425   -2.4373    0.0000 C   0  0  0  0  0  0  0  0  0  0  0  0
    1.5271   -2.1823    0.0000 C   0  0  0  0  0  0  0  0  0  0  0  0
   -0.0422   -2.6922    0.0000 C   0  0  0  0  0  0  0  0  0  0  0  0
    0.4875   -1.6527    0.0000 C   0  0  0  0  0  0  0  0  0  0  0  0
   -0.3194   -1.4811    0.0000 O   0  0  0  0  0  0  0  0  0  0  0  0
    1.0396   -1.0396    0.0000 O   0  0  0  0  0  0  0  0  0  0  0  0
    0.7846   -0.2549    0.0000 C   0  0  0  0  0  0  0  0  0  0  0  0
    0.0000   -0.0000    0.0000 C   0  0  0  0  0  0  0  0  0  0  0  0
   -0.6674   -0.4849    0.0000 C   0  0  0  0  0  0  0  0  0  0  0  0
   -0.5812   -1.3054    0.0000 C   0  0  0  0  0  0  0  0  0  0  0  0
   -1.2486   -1.7903    0.0000 C   0  0  0  0  0  0  0  0  0  0  0  0
   -2.0023   -1.4548    0.0000 C   0  0  0  0  0  0  0  0  0  0  0  0
   -2.6698   -1.9397    0.0000 Cl  0  0  0  0  0  0  0  0  0  0  0  0
   -2.0886   -0.6343    0.0000 C   0  0  0  0  0  0  0  0  0  0  0  0
   -1.4211   -0.1494    0.0000 C   0  0  0  0  0  0  0  0  0  0  0  0
   -1.5074    0.6711    0.0000 Cl  0  0  0  0  0  0  0  0  0  0  0  0
   -0.0000    0.8250    0.0000 C   0  0  0  0  0  0  0  0  0  0  0  0
   -0.6674    1.3099    0.0000 O   0  0  0  0  0  0  0  0  0  0  0  0
    0.7846    1.0799    0.0000 O   0  0  0  0  0  0  0  0  0  0  0  0
    1.2695    0.4125    0.0000 C   0  0  0  0  0  0  0  0  0  0  0  0
    1.6820    1.1270    0.0000 C   0  0  0  0  0  0  0  0  0  0  0  0
    2.5070    1.1270    0.0000 C   0  0  0  0  0  0  0  0  0  0  0  0
    2.9195    0.4125    0.0000 C   0  0  0  0  0  0  0  0  0  0  0  0
    2.5070   -0.3020    0.0000 C   0  0  0  0  0  0  0  0  0  0  0  0
    1.6820   -0.3020    0.0000 C   0  0  0  0  0  0  0  0  0  0  0  0
  1  2  1  0  0  0  0
  2  3  1  0  0  0  0
  3  4  1  0  0  0  0
  3  5  1  0  0  0  0
  3  6  1  0  0  0  0
  6  7  2  0  0  0  0
  6  8  1  0  0  0  0
  8  9  1  0  0  0  0
  9 10  2  0  0  0  0
 10 11  1  0  0  0  0
 11 12  4  0  0  0  0
 12 13  4  0  0  0  0
 13 14  4  0  0  0  0
 14 15  1  0  0  0  0
 14 16  4  0  0  0  0
 16 17  4  0  0  0  0
 11 17  4  0  0  0  0
 17 18  1  0  0  0  0
 10 19  1  0  0  0  0
 19 20  2  0  0  0  0
 19 21  1  0  0  0  0
 21 22  1  0  0  0  0
  9 22  1  0  0  0  0
 22 23  1  0  0  0  0
 23 24  1  0  0  0  0
 24 25  1  0  0  0  0
 25 26  1  0  0  0  0
 26 27  1  0  0  0  0
 22 27  1  0  0  0  0
M  END
> <activity>
42.6

> <InChiKey>
DTDSAWVUFPGDMX-UHFFFAOYSA-N

$$$$

  Mrv2220 08292413132D          

 29 33  0  0  0  0            999 V2000
    1.3541   -4.9675    0.0000 C   0  0  0  0  0  0  0  0  0  0  0  0
    2.1774   -5.0205    0.0000 C   0  0  0  0  0  0  0  0  0  0  0  0
    2.5431   -5.7600    0.0000 O   0  0  0  0  0  0  0  0  0  0  0  0
    2.6350   -4.3340    0.0000 S   0  0  0  0  0  0  0  0  0  0  0  0
    2.2692   -3.5945    0.0000 C   0  0  0  0  0  0  0  0  0  0  0  0
    1.4459   -3.5415    0.0000 C   0  0  0  0  0  0  0  0  0  0  0  0
    1.0802   -2.8020    0.0000 C   0  0  0  0  0  0  0  0  0  0  0  0
    0.2569   -2.7490    0.0000 C   0  0  0  0  0  0  0  0  0  0  0  0
   -0.1088   -2.0095    0.0000 C   0  0  0  0  0  0  0  0  0  0  0  0
   -0.9321   -1.9565    0.0000 O   0  0  0  0  0  0  0  0  0  0  0  0
    0.3487   -1.3230    0.0000 C   0  0  0  0  0  0  0  0  0  0  0  0
    1.1720   -1.3760    0.0000 C   0  0  0  0  0  0  0  0  0  0  0  0
    1.5378   -2.1155    0.0000 C   0  0  0  0  0  0  0  0  0  0  0  0
    1.9953   -1.4290    0.0000 C   0  0  0  0  0  0  0  0  0  0  0  0
    2.3611   -2.1685    0.0000 C   0  0  0  0  0  0  0  0  0  0  0  0
    2.8186   -1.4820    0.0000 C   0  0  0  0  0  0  0  0  0  0  0  0
    3.6419   -1.5351    0.0000 C   0  0  0  0  0  0  0  0  0  0  0  0
    4.0076   -2.2746    0.0000 C   0  0  0  0  0  0  0  0  0  0  0  0
    4.3125   -1.5080    0.0000 C   0  0  0  0  0  0  0  0  0  0  0  0
    3.5501   -2.9611    0.0000 C   0  0  0  0  0  0  0  0  0  0  0  0
    4.0616   -3.6084    0.0000 C   0  0  0  0  0  0  0  0  0  0  0  0
    4.8353   -3.3219    0.0000 C   0  0  0  0  0  0  0  0  0  0  0  0
    4.8019   -2.4976    0.0000 C   0  0  0  0  0  0  0  0  0  0  0  0
    4.7686   -1.6733    0.0000 C   0  0  0  0  0  0  0  0  0  0  0  0
    5.5423   -1.3868    0.0000 C   0  0  0  0  0  0  0  0  0  0  0  0
    6.0538   -2.0341    0.0000 C   0  0  0  0  0  0  0  0  0  0  0  0
    6.8781   -2.0008    0.0000 O   0  0  0  0  0  0  0  0  0  0  0  0
    5.5962   -2.7206    0.0000 O   0  0  0  0  0  0  0  0  0  0  0  0
    2.7268   -2.9080    0.0000 C   0  0  0  0  0  0  0  0  0  0  0  0
  1  2  1  0  0  0  0
  2  3  2  0  0  0  0
  2  4  1  0  0  0  0
  4  5  1  0  0  0  0
  5  6  1  0  0  0  0
  6  7  1  0  0  0  0
  7  8  2  0  0  0  0
  8  9  1  0  0  0  0
  9 10  2  0  0  0  0
  9 11  1  0  0  0  0
 11 12  1  0  0  0  0
 12 13  1  0  0  0  0
  7 13  1  0  0  0  0
 13 14  1  0  0  0  0
 13 15  1  0  0  0  0
 15 16  1  0  0  0  0
 16 17  1  0  0  0  0
 17 18  1  0  0  0  0
 18 19  1  0  0  0  0
 18 20  1  0  0  0  0
 20 21  1  0  0  0  0
 21 22  1  0  0  0  0
 22 23  1  0  0  0  0
 18 23  1  0  0  0  0
 23 24  1  0  0  0  0
 24 25  1  0  0  0  0
 25 26  1  0  0  0  0
 26 27  2  0  0  0  0
 26 28  1  0  0  0  0
 23 28  1  0  0  0  0
 20 29  1  0  0  0  0
  5 29  1  0  0  0  0
 15 29  1  0  0  0  0
M  END
> <activity>
-5.9

> <InChiKey>
LXMSZDCAJNLERA-UHFFFAOYSA-N

$$$$

  Mrv2220 08292413132D          

 21 22  0  0  0  0            999 V2000
   -0.6865   -2.4373    0.0000 C   0  0  0  0  0  0  0  0  0  0  0  0
    0.0280   -2.0248    0.0000 C   0  0  0  0  0  0  0  0  0  0  0  0
    0.7425   -2.4373    0.0000 C   0  0  0  0  0  0  0  0  0  0  0  0
    1.4569   -2.0248    0.0000 N   0  0  0  0  0  0  0  0  0  0  0  0
    1.4569   -1.1998    0.0000 C   0  0  0  0  0  0  0  0  0  0  0  0
    2.1714   -0.7873    0.0000 C   0  0  0  0  0  0  0  0  0  0  0  0
    2.1714   -2.4373    0.0000 C   0  0  0  0  0  0  0  0  0  0  0  0
    2.8859   -2.0248    0.0000 C   0  0  0  0  0  0  0  0  0  0  0  0
    2.9721   -1.2043    0.0000 C   0  0  0  0  0  0  0  0  0  0  0  0
    3.7791   -1.0328    0.0000 O   0  0  0  0  0  0  0  0  0  0  0  0
    4.1916   -1.7472    0.0000 C   0  0  0  0  0  0  0  0  0  0  0  0
    4.6765   -1.0798    0.0000 C   0  0  0  0  0  0  0  0  0  0  0  0
    5.4970   -1.1660    0.0000 C   0  0  0  0  0  0  0  0  0  0  0  0
    5.8325   -1.9197    0.0000 C   0  0  0  0  0  0  0  0  0  0  0  0
    6.6530   -2.0059    0.0000 C   0  0  0  0  0  0  0  0  0  0  0  0
    7.4735   -2.0922    0.0000 C   0  0  0  0  0  0  0  0  0  0  0  0
    6.5668   -2.8264    0.0000 C   0  0  0  0  0  0  0  0  0  0  0  0
    6.7393   -1.1855    0.0000 C   0  0  0  0  0  0  0  0  0  0  0  0
    5.3476   -2.5872    0.0000 C   0  0  0  0  0  0  0  0  0  0  0  0
    4.5271   -2.5009    0.0000 C   0  0  0  0  0  0  0  0  0  0  0  0
    3.6396   -2.3603    0.0000 O   0  0  0  0  0  0  0  0  0  0  0  0
  1  2  1  0  0  0  0
  2  3  1  0  0  0  0
  3  4  1  0  0  0  0
  4  5  1  0  0  0  0
  5  6  1  0  0  0  0
  4  7  1  0  0  0  0
  7  8  1  0  0  0  0
  8  9  1  0  0  0  0
  9 10  1  0  0  0  0
 10 11  1  0  0  0  0
 11 12  1  0  0  0  0
 12 13  1  0  0  0  0
 13 14  1  0  0  0  0
 14 15  1  0  0  0  0
 15 16  1  0  0  0  0
 15 17  1  0  0  0  0
 15 18  1  0  0  0  0
 14 19  1  0  0  0  0
 19 20  1  0  0  0  0
 11 20  1  0  0  0  0
 11 21  1  0  0  0  0
  8 21  1  0  0  0  0
M  END
> <activity>
16.4

> <InChiKey>
PUYXTUJWRLOUCW-UHFFFAOYSA-N

$$$$

  Mrv2220 08292413132D          

 30 33  0  0  0  0            999 V2000
   -0.7145    1.2375    0.0000 O   0  0  0  0  0  0  0  0  0  0  0  0
   -1.4289    0.8250    0.0000 C   0  0  0  0  0  0  0  0  0  0  0  0
   -1.4289    0.0000    0.0000 N   0  0  0  0  0  0  0  0  0  0  0  0
   -0.7145   -0.4125    0.0000 C   0  0  0  0  0  0  0  0  0  0  0  0
   -0.7145   -1.2375    0.0000 C   0  0  0  0  0  0  0  0  0  0  0  0
   -0.0000   -1.6500    0.0000 C   0  0  0  0  0  0  0  0  0  0  0  0
   -0.0000   -2.4750    0.0000 C   0  0  0  0  0  0  0  0  0  0  0  0
   -0.7145   -2.8875    0.0000 C   0  0  0  0  0  0  0  0  0  0  0  0
   -1.4289   -2.4750    0.0000 C   0  0  0  0  0  0  0  0  0  0  0  0
   -1.4289   -1.6500    0.0000 C   0  0  0  0  0  0  0  0  0  0  0  0
   -0.0000    0.0000    0.0000 C   0  0  0  0  0  0  0  0  0  0  0  0
    0.0000    0.8250    0.0000 C   0  0  0  0  0  0  0  0  0  0  0  0
    0.7145    1.2375    0.0000 N   0  0  0  0  0  0  0  0  0  0  0  0
    1.4289    0.8250    0.0000 C   0  0  0  0  0  0  0  0  0  0  0  0
    1.4289    0.0000    0.0000 C   0  0  0  0  0  0  0  0  0  0  0  0
    0.7145   -0.4125    0.0000 C   0  0  0  0  0  0  0  0  0  0  0  0
    0.8520    0.1375    0.0000 C   0  0  0  0  0  0  0  0  0  0  0  0
    0.8520    0.6875    0.0000 C   0  0  0  0  0  0  0  0  0  0  0  0
   -2.1434    1.2375    0.0000 C   0  0  0  0  0  0  0  0  0  0  0  0
   -2.8579    0.8250    0.0000 C   0  0  0  0  0  0  0  0  0  0  0  0
   -2.8579    0.0000    0.0000 Cl  0  0  0  0  0  0  0  0  0  0  0  0
   -3.5724    1.2375    0.0000 C   0  0  0  0  0  0  0  0  0  0  0  0
   -3.5724    2.0625    0.0000 C   0  0  0  0  0  0  0  0  0  0  0  0
   -2.8579    2.4750    0.0000 C   0  0  0  0  0  0  0  0  0  0  0  0
   -2.8579    3.3000    0.0000 C   0  0  0  0  0  0  0  0  0  0  0  0
   -2.8579    4.1250    0.0000 F   0  0  0  0  0  0  0  0  0  0  0  0
   -2.0329    3.3000    0.0000 F   0  0  0  0  0  0  0  0  0  0  0  0
   -3.6829    3.3000    0.0000 F   0  0  0  0  0  0  0  0  0  0  0  0
   -2.1434    2.0625    0.0000 C   0  0  0  0  0  0  0  0  0  0  0  0
   -1.4289    2.4750    0.0000 Cl  0  0  0  0  0  0  0  0  0  0  0  0
  1  2  2  0  0  0  0
  2  3  1  0  0  0  0
  3  4  1  0  0  0  0
  4  5  1  0  0  0  0
  5  6  4  0  0  0  0
  6  7  4  0  0  0  0
  7  8  4  0  0  0  0
  8  9  4  0  0  0  0
  9 10  4  0  0  0  0
  5 10  4  0  0  0  0
  4 11  1  0  0  0  0
 11 12  1  0  0  0  0
 12 13  1  0  0  0  0
 13 14  1  0  0  0  0
 14 15  1  0  0  0  0
 15 16  1  0  0  0  0
 11 16  1  0  0  0  0
 16 17  1  0  0  0  0
 17 18  1  0  0  0  0
 13 18  1  0  0  0  0
  2 19  1  0  0  0  0
 19 20  4  0  0  0  0
 20 21  1  0  0  0  0
 20 22  4  0  0  0  0
 22 23  4  0  0  0  0
 23 24  4  0  0  0  0
 24 25  1  0  0  0  0
 25 26  1  0  0  0  0
 25 27  1  0  0  0  0
 25 28  1  0  0  0  0
 24 29  4  0  0  0  0
 19 29  4  0  0  0  0
 29 30  1  0  0  0  0
M  END
> <activity>
-45.0

> <InChiKey>
VUBUDJCRCAHMBH-UHFFFAOYSA-N

$$$$

  Mrv2220 08292413132D          

 27 29  0  0  0  0            999 V2000
   -1.4289   -0.0000    0.0000 O   0  0  0  0  0  0  0  0  0  0  0  0
   -2.1434   -0.4125    0.0000 C   0  0  0  0  0  0  0  0  0  0  0  0
   -2.1434   -1.2375    0.0000 N   0  0  0  0  0  0  0  0  0  0  0  0
   -1.4289   -1.6500    0.0000 C   0  0  0  0  0  0  0  0  0  0  0  0
   -1.4289   -2.4750    0.0000 C   0  0  0  0  0  0  0  0  0  0  0  0
   -0.7145   -2.8875    0.0000 C   0  0  0  0  0  0  0  0  0  0  0  0
   -0.7145   -3.7125    0.0000 C   0  0  0  0  0  0  0  0  0  0  0  0
   -1.4289   -4.1250    0.0000 C   0  0  0  0  0  0  0  0  0  0  0  0
   -2.1434   -3.7125    0.0000 C   0  0  0  0  0  0  0  0  0  0  0  0
   -2.1434   -2.8875    0.0000 C   0  0  0  0  0  0  0  0  0  0  0  0
   -0.7145   -1.2375    0.0000 C   0  0  0  0  0  0  0  0  0  0  0  0
   -0.7145   -0.4125    0.0000 C   0  0  0  0  0  0  0  0  0  0  0  0
    0.0000   -0.0000    0.0000 C   0  0  0  0  0  0  0  0  0  0  0  0
    0.7145   -0.4125    0.0000 C   0  0  0  0  0  0  0  0  0  0  0  0
    0.7145   -1.2375    0.0000 C   0  0  0  0  0  0  0  0  0  0  0  0
    0.0000   -1.6500    0.0000 N   0  0  0  0  0  0  0  0  0  0  0  0
   -2.8579   -0.0000    0.0000 C   0  0  0  0  0  0  0  0  0  0  0  0
   -3.5724   -0.4125    0.0000 C   0  0  0  0  0  0  0  0  0  0  0  0
   -4.2868   -0.0000    0.0000 C   0  0  0  0  0  0  0  0  0  0  0  0
   -4.2868    0.8250    0.0000 C   0  0  0  0  0  0  0  0  0  0  0  0
   -3.5724    1.2375    0.0000 C   0  0  0  0  0  0  0  0  0  0  0  0
   -3.5724    2.0625    0.0000 C   0  0  0  0  0  0  0  0  0  0  0  0
   -3.5724    2.8875    0.0000 F   0  0  0  0  0  0  0  0  0  0  0  0
   -2.7474    2.0625    0.0000 F   0  0  0  0  0  0  0  0  0  0  0  0
   -4.3974    2.0625    0.0000 F   0  0  0  0  0  0  0  0  0  0  0  0
   -2.8579    0.8250    0.0000 C   0  0  0  0  0  0  0  0  0  0  0  0
   -2.1434    1.2375    0.0000 Cl  0  0  0  0  0  0  0  0  0  0  0  0
  1  2  2  0  0  0  0
  2  3  1  0  0  0  0
  3  4  1  0  0  0  0
  4  5  1  0  0  0  0
  5  6  4  0  0  0  0
  6  7  4  0  0  0  0
  7  8  4  0  0  0  0
  8  9  4  0  0  0  0
  9 10  4  0  0  0  0
  5 10  4  0  0  0  0
  4 11  1  0  0  0  0
 11 12  1  0  0  0  0
 12 13  1  0  0  0  0
 13 14  1  0  0  0  0
 14 15  1  0  0  0  0
 15 16  1  0  0  0  0
 11 16  1  0  0  0  0
  2 17  1  0  0  0  0
 17 18  4  0  0  0  0
 18 19  4  0  0  0  0
 19 20  4  0  0  0  0
 20 21  4  0  0  0  0
 21 22  1  0  0  0  0
 22 23  1  0  0  0  0
 22 24  1  0  0  0  0
 22 25  1  0  0  0  0
 21 26  4  0  0  0  0
 17 26  4  0  0  0  0
 26 27  1  0  0  0  0
M  END
> <activity>
4.4

> <InChiKey>
MEZRZVWPLXVLSO-UHFFFAOYSA-N

$$$$

  Mrv2220 08292413132D          

 39 43  0  0  0  0            999 V2000
   -4.7971   -4.0709    0.0000 C   0  0  0  0  0  0  0  0  0  0  0  0
   -3.9721   -4.0709    0.0000 O   0  0  0  0  0  0  0  0  0  0  0  0
   -3.5596   -3.3565    0.0000 C   0  0  0  0  0  0  0  0  0  0  0  0
   -3.9721   -2.6420    0.0000 C   0  0  0  0  0  0  0  0  0  0  0  0
   -3.5596   -1.9275    0.0000 C   0  0  0  0  0  0  0  0  0  0  0  0
   -3.9721   -1.2131    0.0000 C   0  0  0  0  0  0  0  0  0  0  0  0
   -3.5596   -0.4986    0.0000 C   0  0  0  0  0  0  0  0  0  0  0  0
   -4.7971   -1.2131    0.0000 C   0  0  0  0  0  0  0  0  0  0  0  0
   -2.7346   -1.9275    0.0000 C   0  0  0  0  0  0  0  0  0  0  0  0
   -2.3221   -2.6420    0.0000 C   0  0  0  0  0  0  0  0  0  0  0  0
   -2.7346   -3.3565    0.0000 C   0  0  0  0  0  0  0  0  0  0  0  0
   -1.5152   -2.4705    0.0000 S   0  0  0  0  0  0  0  0  0  0  0  0
   -1.4289   -3.2910    0.0000 O   0  0  0  0  0  0  0  0  0  0  0  0
   -0.6902   -2.4705    0.0000 O   0  0  0  0  0  0  0  0  0  0  0  0
   -1.4289   -1.6500    0.0000 N   0  0  0  0  0  0  0  0  0  0  0  0
   -0.7145   -1.2375    0.0000 C   0  0  0  0  0  0  0  0  0  0  0  0
    0.0000   -1.6500    0.0000 O   0  0  0  0  0  0  0  0  0  0  0  0
    0.7145   -1.2375    0.0000 C   0  0  0  0  0  0  0  0  0  0  0  0
    0.7145   -0.4125    0.0000 C   0  0  0  0  0  0  0  0  0  0  0  0
    1.4289    0.0000    0.0000 C   0  0  0  0  0  0  0  0  0  0  0  0
    1.4289    0.8250    0.0000 O   0  0  0  0  0  0  0  0  0  0  0  0
    2.1434   -0.4125    0.0000 N   0  0  0  0  0  0  0  0  0  0  0  0
    2.8579    0.0000    0.0000 C   0  0  0  0  0  0  0  0  0  0  0  0
    3.5724   -0.4125    0.0000 C   0  0  0  0  0  0  0  0  0  0  0  0
    3.5724   -1.2375    0.0000 C   0  0  0  0  0  0  0  0  0  0  0  0
    2.8579   -1.6500    0.0000 C   0  0  0  0  0  0  0  0  0  0  0  0
    2.8579   -2.4750    0.0000 O   0  0  0  0  0  0  0  0  0  0  0  0
    2.1434   -2.8875    0.0000 C   0  0  0  0  0  0  0  0  0  0  0  0
    2.1434   -3.7125    0.0000 C   0  0  0  0  0  0  0  0  0  0  0  0
    2.8579   -4.1250    0.0000 N   0  0  0  0  0  0  0  0  0  0  0  0
    3.5724   -3.7125    0.0000 C   0  0  0  0  0  0  0  0  0  0  0  0
    4.2868   -4.1250    0.0000 C   0  0  0  0  0  0  0  0  0  0  0  0
    4.2868   -4.9500    0.0000 C   0  0  0  0  0  0  0  0  0  0  0  0
    3.5724   -5.3625    0.0000 C   0  0  0  0  0  0  0  0  0  0  0  0
    2.8579   -4.9500    0.0000 C   0  0  0  0  0  0  0  0  0  0  0  0
    2.1434   -1.2375    0.0000 C   0  0  0  0  0  0  0  0  0  0  0  0
    1.4289   -1.6500    0.0000 N   0  0  0  0  0  0  0  0  0  0  0  0
   -2.1826   -1.3144    0.0000 C   0  0  0  0  0  0  0  0  0  0  0  0
   -2.3541   -0.5075    0.0000 O   0  0  0  0  0  0  0  0  0  0  0  0
  1  2  1  0  0  0  0
  2  3  1  0  0  0  0
  3  4  4  0  0  0  0
  4  5  4  0  0  0  0
  5  6  1  0  0  0  0
  6  7  1  0  0  0  0
  6  8  1  0  0  0  0
  5  9  4  0  0  0  0
  9 10  4  0  0  0  0
 10 11  4  0  0  0  0
  3 11  4  0  0  0  0
 10 12  1  0  0  0  0
 12 13  2  0  0  0  0
 12 14  2  0  0  0  0
 12 15  1  0  0  0  0
 15 16  1  0  0  0  0
 16 17  1  0  0  0  0
 17 18  1  0  0  0  0
 18 19  4  0  0  0  0
 19 20  4  0  0  0  0
 20 21  2  0  0  0  0
 20 22  4  0  0  0  0
 22 23  4  0  0  0  0
 23 24  4  0  0  0  0
 24 25  4  0  0  0  0
 25 26  4  0  0  0  0
 26 27  1  0  0  0  0
 27 28  1  0  0  0  0
 28 29  1  0  0  0  0
 29 30  1  0  0  0  0
 30 31  1  0  0  0  0
 31 32  1  0  0  0  0
 32 33  1  0  0  0  0
 33 34  1  0  0  0  0
 34 35  1  0  0  0  0
 30 35  1  0  0  0  0
 26 36  4  0  0  0  0
 22 36  4  0  0  0  0
 36 37  4  0  0  0  0
 18 37  4  0  0  0  0
 15 38  1  0  0  0  0
  9 38  1  0  0  0  0
 38 39  2  0  0  0  0
M  END
> <activity>
22.0

> <InChiKey>
DRZXDZYWZSKFDL-UHFFFAOYSA-N

$$$$

  Mrv2220 08292413132D          

 10 10  0  0  0  0            999 V2000
    0.0000    3.3000    0.0000 O   0  0  0  0  0  0  0  0  0  0  0  0
    0.0000    2.4750    0.0000 C   0  0  0  0  0  0  0  0  0  0  0  0
    0.7145    2.0625    0.0000 C   0  0  0  0  0  0  0  0  0  0  0  0
    1.4289    2.4750    0.0000 O   0  0  0  0  0  0  0  0  0  0  0  0
    0.7145    1.2375    0.0000 C   0  0  0  0  0  0  0  0  0  0  0  0
    1.4289    0.8250    0.0000 C   0  0  0  0  0  0  0  0  0  0  0  0
    1.4289   -0.0000    0.0000 C   0  0  0  0  0  0  0  0  0  0  0  0
    0.7145   -0.4125    0.0000 C   0  0  0  0  0  0  0  0  0  0  0  0
    0.0000    0.0000    0.0000 C   0  0  0  0  0  0  0  0  0  0  0  0
    0.0000    0.8250    0.0000 C   0  0  0  0  0  0  0  0  0  0  0  0
  1  2  1  0  0  0  0
  2  3  1  0  0  0  0
  3  4  1  0  0  0  0
  3  5  1  0  0  0  0
  5  6  4  0  0  0  0
  6  7  4  0  0  0  0
  7  8  4  0  0  0  0
  8  9  4  0  0  0  0
  9 10  4  0  0  0  0
  5 10  4  0  0  0  0
M  END
> <activity>
8.5

> <InChiKey>
PWMWNFMRSKOCEY-UHFFFAOYSA-N

$$$$

  Mrv2220 08292413132D          

 23 24  0  0  0  0            999 V2000
    1.8370   -0.6114    0.0000 O   0  0  0  0  0  0  0  0  0  0  0  0
    1.0300   -0.4399    0.0000 C   0  0  0  0  0  0  0  0  0  0  0  0
    0.7751    0.3448    0.0000 C   0  0  0  0  0  0  0  0  0  0  0  0
   -0.0319    0.5163    0.0000 O   0  0  0  0  0  0  0  0  0  0  0  0
   -0.2868    1.3009    0.0000 C   0  0  0  0  0  0  0  0  0  0  0  0
   -1.0938    1.4724    0.0000 O   0  0  0  0  0  0  0  0  0  0  0  0
   -1.6458    0.8593    0.0000 C   0  0  0  0  0  0  0  0  0  0  0  0
   -2.1978    1.4724    0.0000 C   0  0  0  0  0  0  0  0  0  0  0  0
   -3.0048    1.3009    0.0000 O   0  0  0  0  0  0  0  0  0  0  0  0
   -0.9784    0.3744    0.0000 O   0  0  0  0  0  0  0  0  0  0  0  0
   -1.2333   -0.4102    0.0000 C   0  0  0  0  0  0  0  0  0  0  0  0
   -0.7484   -1.0776    0.0000 C   0  0  0  0  0  0  0  0  0  0  0  0
    0.0721   -0.9914    0.0000 O   0  0  0  0  0  0  0  0  0  0  0  0
   -2.0583   -0.4102    0.0000 C   0  0  0  0  0  0  0  0  0  0  0  0
   -2.5432   -1.0776    0.0000 O   0  0  0  0  0  0  0  0  0  0  0  0
   -2.3132    0.3744    0.0000 C   0  0  0  0  0  0  0  0  0  0  0  0
   -3.0979    0.6294    0.0000 O   0  0  0  0  0  0  0  0  0  0  0  0
    0.2652    1.9140    0.0000 C   0  0  0  0  0  0  0  0  0  0  0  0
    0.0103    2.6986    0.0000 O   0  0  0  0  0  0  0  0  0  0  0  0
    1.0722    1.7425    0.0000 C   0  0  0  0  0  0  0  0  0  0  0  0
    1.6242    2.3556    0.0000 O   0  0  0  0  0  0  0  0  0  0  0  0
    1.3271    0.9579    0.0000 C   0  0  0  0  0  0  0  0  0  0  0  0
    2.1341    0.7863    0.0000 O   0  0  0  0  0  0  0  0  0  0  0  0
  1  2  1  0  0  0  0
  2  3  1  0  0  0  0
  3  4  1  0  0  0  0
  4  5  1  0  0  0  0
  5  6  1  0  0  0  0
  6  7  1  0  0  0  0
  7  8  1  0  0  0  0
  8  9  1  0  0  0  0
  7 10  1  0  0  0  0
 10 11  1  0  0  0  0
 11 12  1  0  0  0  0
 12 13  1  0  0  0  0
 11 14  1  0  0  0  0
 14 15  1  0  0  0  0
 14 16  1  0  0  0  0
  7 16  1  0  0  0  0
 16 17  1  0  0  0  0
  5 18  1  0  0  0  0
 18 19  1  0  0  0  0
 18 20  1  0  0  0  0
 20 21  1  0  0  0  0
 20 22  1  0  0  0  0
  3 22  1  0  0  0  0
 22 23  1  0  0  0  0
M  END
> <activity>
8.1

> <InChiKey>
CZMRCDWAGMRECN-UHFFFAOYSA-N

$$$$

  Mrv2220 08292413132D          

 12 11  0  0  0  0            999 V2000
    0.5230    0.5230    0.0000 O   0  0  0  0  0  0  0  0  0  0  0  0
    1.2375    0.1105    0.0000 C   0  0  0  0  0  0  0  0  0  0  0  0
    1.9520    0.5230    0.0000 O   0  0  0  0  0  0  0  0  0  0  0  0
    1.2375   -0.7145    0.0000 C   0  0  0  0  0  0  0  0  0  0  0  0
    1.9520   -1.1270    0.0000 C   0  0  0  0  0  0  0  0  0  0  0  0
    1.9520   -1.9520    0.0000 C   0  0  0  0  0  0  0  0  0  0  0  0
    2.6664   -2.3645    0.0000 O   0  0  0  0  0  0  0  0  0  0  0  0
    1.2375   -2.3645    0.0000 O   0  0  0  0  0  0  0  0  0  0  0  0
    2.6664   -0.7145    0.0000 S   0  0  0  0  0  0  0  0  0  0  0  0
    3.0789   -1.4289    0.0000 O   0  0  0  0  0  0  0  0  0  0  0  0
    2.2539    0.0000    0.0000 O   0  0  0  0  0  0  0  0  0  0  0  0
    3.3809   -0.3020    0.0000 O   0  0  0  0  0  0  0  0  0  0  0  0
  1  2  2  0  0  0  0
  2  3  1  0  0  0  0
  2  4  1  0  0  0  0
  4  5  1  0  0  0  0
  5  6  1  0  0  0  0
  6  7  2  0  0  0  0
  6  8  1  0  0  0  0
  5  9  1  0  0  0  0
  9 10  2  0  0  0  0
  9 11  2  0  0  0  0
  9 12  1  0  0  0  0
M  END
> <activity>
5.8

> <InChiKey>
ULUAUXLGCMPNKK-UHFFFAOYSA-N

$$$$

  Mrv2220 08292413132D          

 21 22  0  0  0  0            999 V2000
    2.8579    0.0000    0.0000 C   0  0  0  0  0  0  0  0  0  0  0  0
    2.1434   -0.4125    0.0000 O   0  0  0  0  0  0  0  0  0  0  0  0
    2.1434   -1.2375    0.0000 C   0  0  0  0  0  0  0  0  0  0  0  0
    2.8579   -1.6500    0.0000 C   0  0  0  0  0  0  0  0  0  0  0  0
    2.8579   -2.4750    0.0000 C   0  0  0  0  0  0  0  0  0  0  0  0
    3.5724   -2.8875    0.0000 O   0  0  0  0  0  0  0  0  0  0  0  0
    2.1434   -2.8875    0.0000 C   0  0  0  0  0  0  0  0  0  0  0  0
    2.1434   -3.7125    0.0000 C   0  0  0  0  0  0  0  0  0  0  0  0
    2.8579   -4.1250    0.0000 O   0  0  0  0  0  0  0  0  0  0  0  0
    1.4289   -4.1250    0.0000 C   0  0  0  0  0  0  0  0  0  0  0  0
    1.4289   -4.9500    0.0000 C   0  0  0  0  0  0  0  0  0  0  0  0
    0.7145   -5.3625    0.0000 C   0  0  0  0  0  0  0  0  0  0  0  0
   -0.0000   -4.9500    0.0000 C   0  0  0  0  0  0  0  0  0  0  0  0
    0.0000   -4.1250    0.0000 C   0  0  0  0  0  0  0  0  0  0  0  0
    0.7145   -3.7125    0.0000 C   0  0  0  0  0  0  0  0  0  0  0  0
    1.4289   -2.4750    0.0000 C   0  0  0  0  0  0  0  0  0  0  0  0
    1.4289   -1.6500    0.0000 C   0  0  0  0  0  0  0  0  0  0  0  0
    0.7145   -1.2375    0.0000 S   0  0  0  0  0  0  0  0  0  0  0  0
    0.0000   -0.8250    0.0000 O   0  0  0  0  0  0  0  0  0  0  0  0
    1.1270   -0.5230    0.0000 O   0  0  0  0  0  0  0  0  0  0  0  0
    0.3020   -1.9520    0.0000 O   0  0  0  0  0  0  0  0  0  0  0  0
  1  2  1  0  0  0  0
  2  3  1  0  0  0  0
  3  4  4  0  0  0  0
  4  5  4  0  0  0  0
  5  6  1  0  0  0  0
  5  7  4  0  0  0  0
  7  8  1  0  0  0  0
  8  9  2  0  0  0  0
  8 10  1  0  0  0  0
 10 11  4  0  0  0  0
 11 12  4  0  0  0  0
 12 13  4  0  0  0  0
 13 14  4  0  0  0  0
 14 15  4  0  0  0  0
 10 15  4  0  0  0  0
  7 16  4  0  0  0  0
 16 17  4  0  0  0  0
  3 17  4  0  0  0  0
 17 18  1  0  0  0  0
 18 19  2  0  0  0  0
 18 20  2  0  0  0  0
 18 21  1  0  0  0  0
M  END
> <activity>
81.2

> <InChiKey>
CXVGEDCSTKKODG-UHFFFAOYSA-N

$$$$

  Mrv2220 08292413132D          

 12 12  0  0  0  0            999 V2000
    0.7145    2.0625    0.0000 O   0  0  0  0  0  0  0  0  0  0  0  0
    0.7145    1.2375    0.0000 C   0  0  0  0  0  0  0  0  0  0  0  0
    1.4289    0.8250    0.0000 N   0  0  0  0  0  0  0  0  0  0  0  0
    2.1434    1.2375    0.0000 Cl  0  0  0  0  0  0  0  0  0  0  0  0
    1.4289   -0.0000    0.0000 C   0  0  0  0  0  0  0  0  0  0  0  0
    2.1434   -0.4125    0.0000 O   0  0  0  0  0  0  0  0  0  0  0  0
    0.7145   -0.4125    0.0000 N   0  0  0  0  0  0  0  0  0  0  0  0
    0.7145   -1.2375    0.0000 Cl  0  0  0  0  0  0  0  0  0  0  0  0
    0.0000    0.0000    0.0000 C   0  0  0  0  0  0  0  0  0  0  0  0
   -0.7145   -0.4125    0.0000 O   0  0  0  0  0  0  0  0  0  0  0  0
    0.0000    0.8250    0.0000 N   0  0  0  0  0  0  0  0  0  0  0  0
   -0.7145    1.2375    0.0000 Cl  0  0  0  0  0  0  0  0  0  0  0  0
  1  2  2  0  0  0  0
  2  3  4  0  0  0  0
  3  4  1  0  0  0  0
  3  5  4  0  0  0  0
  5  6  2  0  0  0  0
  5  7  4  0  0  0  0
  7  8  1  0  0  0  0
  7  9  4  0  0  0  0
  9 10  2  0  0  0  0
  9 11  4  0  0  0  0
  2 11  4  0  0  0  0
 11 12  1  0  0  0  0
M  END
> <activity>
27.1

> <InChiKey>
YRIZYWQGELRKNT-UHFFFAOYSA-N

$$$$

  Mrv2220 08292413132D          

 21 22  0  0  0  0            999 V2000
   -3.1637   -2.4261    0.0000 C   0  0  0  0  0  0  0  0  0  0  0  0
   -2.4492   -2.8386    0.0000 C   0  0  0  0  0  0  0  0  0  0  0  0
   -1.7347   -3.2511    0.0000 C   0  0  0  0  0  0  0  0  0  0  0  0
   -2.8617   -3.5530    0.0000 C   0  0  0  0  0  0  0  0  0  0  0  0
   -2.0367   -2.1241    0.0000 C   0  0  0  0  0  0  0  0  0  0  0  0
   -1.6242   -1.4096    0.0000 O   0  0  0  0  0  0  0  0  0  0  0  0
   -2.7512   -1.7116    0.0000 C   0  0  0  0  0  0  0  0  0  0  0  0
   -2.7512   -0.8866    0.0000 C   0  0  0  0  0  0  0  0  0  0  0  0
   -3.4656   -0.4741    0.0000 C   0  0  0  0  0  0  0  0  0  0  0  0
   -4.1801   -0.8866    0.0000 C   0  0  0  0  0  0  0  0  0  0  0  0
   -4.8946   -0.4741    0.0000 C   0  0  0  0  0  0  0  0  0  0  0  0
   -4.8946    0.3509    0.0000 C   0  0  0  0  0  0  0  0  0  0  0  0
   -5.6091    0.7634    0.0000 Cl  0  0  0  0  0  0  0  0  0  0  0  0
   -4.1801    0.7634    0.0000 C   0  0  0  0  0  0  0  0  0  0  0  0
   -3.4656    0.3509    0.0000 C   0  0  0  0  0  0  0  0  0  0  0  0
   -1.3222   -2.5366    0.0000 C   0  0  0  0  0  0  0  0  0  0  0  0
   -1.3222   -3.3616    0.0000 N   0  0  0  0  0  0  0  0  0  0  0  0
   -0.6548   -3.8465    0.0000 C   0  0  0  0  0  0  0  0  0  0  0  0
   -0.9097   -4.6312    0.0000 N   0  0  0  0  0  0  0  0  0  0  0  0
   -1.7347   -4.6312    0.0000 C   0  0  0  0  0  0  0  0  0  0  0  0
   -1.9897   -3.8465    0.0000 N   0  0  0  0  0  0  0  0  0  0  0  0
  1  2  1  0  0  0  0
  2  3  1  0  0  0  0
  2  4  1  0  0  0  0
  2  5  1  0  0  0  0
  5  6  1  0  0  0  0
  5  7  1  0  0  0  0
  7  8  1  0  0  0  0
  8  9  1  0  0  0  0
  9 10  4  0  0  0  0
 10 11  4  0  0  0  0
 11 12  4  0  0  0  0
 12 13  1  0  0  0  0
 12 14  4  0  0  0  0
 14 15  4  0  0  0  0
  9 15  4  0  0  0  0
  5 16  1  0  0  0  0
 16 17  1  0  0  0  0
 17 18  4  0  0  0  0
 18 19  4  0  0  0  0
 19 20  4  0  0  0  0
 20 21  4  0  0  0  0
 17 21  4  0  0  0  0
M  END
> <activity>
25.5

> <InChiKey>
PXMNMQRDXWABCY-UHFFFAOYSA-N

$$$$

  Mrv2220 08292413132D          

 23 24  0  0  0  0            999 V2000
    3.4656   -1.2991    0.0000 C   0  0  0  0  0  0  0  0  0  0  0  0
    2.7512   -1.7116    0.0000 C   0  0  0  0  0  0  0  0  0  0  0  0
    2.7512   -2.5366    0.0000 C   0  0  0  0  0  0  0  0  0  0  0  0
    3.4186   -3.0215    0.0000 N   0  0  0  0  0  0  0  0  0  0  0  0
    3.1637   -3.8062    0.0000 N   0  0  0  0  0  0  0  0  0  0  0  0
    3.6486   -4.4736    0.0000 C   0  0  0  0  0  0  0  0  0  0  0  0
    2.3387   -3.8062    0.0000 C   0  0  0  0  0  0  0  0  0  0  0  0
    1.8538   -4.4736    0.0000 C   0  0  0  0  0  0  0  0  0  0  0  0
    2.1893   -5.2273    0.0000 O   0  0  0  0  0  0  0  0  0  0  0  0
    1.0333   -4.3874    0.0000 N   0  0  0  0  0  0  0  0  0  0  0  0
    0.5484   -5.0548    0.0000 C   0  0  0  0  0  0  0  0  0  0  0  0
   -0.2721   -4.9686    0.0000 C   0  0  0  0  0  0  0  0  0  0  0  0
   -0.7571   -5.6360    0.0000 C   0  0  0  0  0  0  0  0  0  0  0  0
   -1.5775   -5.5498    0.0000 C   0  0  0  0  0  0  0  0  0  0  0  0
   -1.9131   -4.7961    0.0000 C   0  0  0  0  0  0  0  0  0  0  0  0
   -2.7336   -4.7098    0.0000 C   0  0  0  0  0  0  0  0  0  0  0  0
   -3.5541   -4.6236    0.0000 C   0  0  0  0  0  0  0  0  0  0  0  0
   -2.6473   -3.8894    0.0000 C   0  0  0  0  0  0  0  0  0  0  0  0
   -2.8198   -5.5303    0.0000 C   0  0  0  0  0  0  0  0  0  0  0  0
   -1.4282   -4.1286    0.0000 C   0  0  0  0  0  0  0  0  0  0  0  0
   -0.6077   -4.2149    0.0000 C   0  0  0  0  0  0  0  0  0  0  0  0
    2.0837   -3.0215    0.0000 C   0  0  0  0  0  0  0  0  0  0  0  0
    1.2991   -2.7666    0.0000 Cl  0  0  0  0  0  0  0  0  0  0  0  0
  1  2  1  0  0  0  0
  2  3  1  0  0  0  0
  3  4  4  0  0  0  0
  4  5  4  0  0  0  0
  5  6  1  0  0  0  0
  5  7  4  0  0  0  0
  7  8  1  0  0  0  0
  8  9  2  0  0  0  0
  8 10  1  0  0  0  0
 10 11  1  0  0  0  0
 11 12  1  0  0  0  0
 12 13  4  0  0  0  0
 13 14  4  0  0  0  0
 14 15  4  0  0  0  0
 15 16  1  0  0  0  0
 16 17  1  0  0  0  0
 16 18  1  0  0  0  0
 16 19  1  0  0  0  0
 15 20  4  0  0  0  0
 20 21  4  0  0  0  0
 12 21  4  0  0  0  0
  7 22  4  0  0  0  0
  3 22  4  0  0  0  0
 22 23  1  0  0  0  0
M  END
> <activity>
24.5

> <InChiKey>
ZZYSLNWGKKDOML-UHFFFAOYSA-N

$$$$

  Mrv2220 08292413132D          

 27 28  0  0  0  0            999 V2000
    0.7145    1.2375    0.0000 C   0  0  0  0  0  0  0  0  0  0  0  0
    0.7145    0.4125    0.0000 O   0  0  0  0  0  0  0  0  0  0  0  0
    1.4289    0.0000    0.0000 P   0  0  0  0  0  0  0  0  0  0  0  0
    1.0164   -0.7145    0.0000 S   0  0  0  0  0  0  0  0  0  0  0  0
    1.8414    0.7145    0.0000 O   0  0  0  0  0  0  0  0  0  0  0  0
    2.6664    0.7145    0.0000 C   0  0  0  0  0  0  0  0  0  0  0  0
    2.1434   -0.4125    0.0000 O   0  0  0  0  0  0  0  0  0  0  0  0
    2.1434   -1.2375    0.0000 C   0  0  0  0  0  0  0  0  0  0  0  0
    2.8579   -1.6500    0.0000 C   0  0  0  0  0  0  0  0  0  0  0  0
    2.8579   -2.4750    0.0000 C   0  0  0  0  0  0  0  0  0  0  0  0
    2.1434   -2.8875    0.0000 C   0  0  0  0  0  0  0  0  0  0  0  0
    2.1434   -3.7125    0.0000 S   0  0  0  0  0  0  0  0  0  0  0  0
    1.4289   -4.1250    0.0000 C   0  0  0  0  0  0  0  0  0  0  0  0
    1.4289   -4.9500    0.0000 C   0  0  0  0  0  0  0  0  0  0  0  0
    0.7145   -5.3625    0.0000 C   0  0  0  0  0  0  0  0  0  0  0  0
   -0.0000   -4.9500    0.0000 C   0  0  0  0  0  0  0  0  0  0  0  0
   -0.7145   -5.3625    0.0000 O   0  0  0  0  0  0  0  0  0  0  0  0
   -0.7145   -6.1875    0.0000 P   0  0  0  0  0  0  0  0  0  0  0  0
   -1.5395   -6.1875    0.0000 S   0  0  0  0  0  0  0  0  0  0  0  0
   -0.7145   -7.0125    0.0000 O   0  0  0  0  0  0  0  0  0  0  0  0
   -0.0000   -7.4250    0.0000 C   0  0  0  0  0  0  0  0  0  0  0  0
    0.1105   -6.1875    0.0000 O   0  0  0  0  0  0  0  0  0  0  0  0
    0.5230   -6.9020    0.0000 C   0  0  0  0  0  0  0  0  0  0  0  0
    0.0000   -4.1250    0.0000 C   0  0  0  0  0  0  0  0  0  0  0  0
    0.7145   -3.7125    0.0000 C   0  0  0  0  0  0  0  0  0  0  0  0
    1.4289   -2.4750    0.0000 C   0  0  0  0  0  0  0  0  0  0  0  0
    1.4289   -1.6500    0.0000 C   0  0  0  0  0  0  0  0  0  0  0  0
  1  2  1  0  0  0  0
  2  3  1  0  0  0  0
  3  4  2  0  0  0  0
  3  5  1  0  0  0  0
  5  6  1  0  0  0  0
  3  7  1  0  0  0  0
  7  8  1  0  0  0  0
  8  9  4  0  0  0  0
  9 10  4  0  0  0  0
 10 11  4  0  0  0  0
 11 12  1  0  0  0  0
 12 13  1  0  0  0  0
 13 14  4  0  0  0  0
 14 15  4  0  0  0  0
 15 16  4  0  0  0  0
 16 17  1  0  0  0  0
 17 18  1  0  0  0  0
 18 19  2  0  0  0  0
 18 20  1  0  0  0  0
 20 21  1  0  0  0  0
 18 22  1  0  0  0  0
 22 23  1  0  0  0  0
 16 24  4  0  0  0  0
 24 25  4  0  0  0  0
 13 25  4  0  0  0  0
 11 26  4  0  0  0  0
 26 27  4  0  0  0  0
  8 27  4  0  0  0  0
M  END
> <activity>
101.6

> <InChiKey>
WWJZWCUNLNYYAU-UHFFFAOYSA-N

$$$$

  Mrv2220 08292413132D          

 23 24  0  0  0  0            999 V2000
   -0.7145   -0.4125    0.0000 C   0  0  0  0  0  0  0  0  0  0  0  0
    0.0000    0.0000    0.0000 C   0  0  0  0  0  0  0  0  0  0  0  0
    0.7145   -0.4125    0.0000 C   0  0  0  0  0  0  0  0  0  0  0  0
    1.4289    0.0000    0.0000 N   0  0  0  0  0  0  0  0  0  0  0  0
    1.4289    0.8250    0.0000 O   0  0  0  0  0  0  0  0  0  0  0  0
    2.1434    1.2375    0.0000 C   0  0  0  0  0  0  0  0  0  0  0  0
    2.1434    2.0625    0.0000 C   0  0  0  0  0  0  0  0  0  0  0  0
    2.8579    2.4750    0.0000 C   0  0  0  0  0  0  0  0  0  0  0  0
    2.8579    3.3000    0.0000 Cl  0  0  0  0  0  0  0  0  0  0  0  0
    0.7145   -1.2375    0.0000 C   0  0  0  0  0  0  0  0  0  0  0  0
    1.4289   -1.6500    0.0000 C   0  0  0  0  0  0  0  0  0  0  0  0
    2.1434   -1.2375    0.0000 O   0  0  0  0  0  0  0  0  0  0  0  0
    1.4289   -2.4750    0.0000 C   0  0  0  0  0  0  0  0  0  0  0  0
    0.7145   -2.8875    0.0000 C   0  0  0  0  0  0  0  0  0  0  0  0
    0.7145   -3.7125    0.0000 C   0  0  0  0  0  0  0  0  0  0  0  0
    1.4289   -4.1250    0.0000 C   0  0  0  0  0  0  0  0  0  0  0  0
    1.4289   -4.9500    0.0000 C   0  0  0  0  0  0  0  0  0  0  0  0
    0.7145   -5.3625    0.0000 O   0  0  0  0  0  0  0  0  0  0  0  0
    0.0000   -4.9500    0.0000 C   0  0  0  0  0  0  0  0  0  0  0  0
    0.0000   -4.1250    0.0000 C   0  0  0  0  0  0  0  0  0  0  0  0
    0.0000   -2.4750    0.0000 C   0  0  0  0  0  0  0  0  0  0  0  0
    0.0000   -1.6500    0.0000 C   0  0  0  0  0  0  0  0  0  0  0  0
   -0.7145   -1.2375    0.0000 O   0  0  0  0  0  0  0  0  0  0  0  0
  1  2  1  0  0  0  0
  2  3  1  0  0  0  0
  3  4  2  0  0  0  0
  4  5  1  4  0  0  0
  5  6  1  0  0  0  0
  6  7  1  0  0  0  0
  7  8  2  0  0  0  0
  8  9  1  4  0  0  0
  3 10  1  0  0  0  0
 10 11  2  0  0  0  0
 11 12  1  0  0  0  0
 11 13  1  0  0  0  0
 13 14  1  0  0  0  0
 14 15  1  0  0  0  0
 15 16  1  0  0  0  0
 16 17  1  0  0  0  0
 17 18  1  0  0  0  0
 18 19  1  0  0  0  0
 19 20  1  0  0  0  0
 15 20  1  0  0  0  0
 14 21  1  0  0  0  0
 21 22  1  0  0  0  0
 10 22  1  0  0  0  0
 22 23  2  0  0  0  0
M  END
> <activity>
12.4

> <InChiKey>
IOYNQIMAUDJVEI-UHFFFAOYSA-N

$$$$

  Mrv2220 08292413132D          

 14 14  0  0  0  0            999 V2000
    0.7145    2.0625    0.0000 C   0  0  0  0  0  0  0  0  0  0  0  0
    0.7145    1.2375    0.0000 C   0  0  0  0  0  0  0  0  0  0  0  0
    1.4289    0.8250    0.0000 N   0  0  0  0  0  0  0  0  0  0  0  0
    1.4289   -0.0000    0.0000 C   0  0  0  0  0  0  0  0  0  0  0  0
    2.1434   -0.4125    0.0000 O   0  0  0  0  0  0  0  0  0  0  0  0
    0.7145   -0.4125    0.0000 N   0  0  0  0  0  0  0  0  0  0  0  0
    0.7145   -1.2375    0.0000 C   0  0  0  0  0  0  0  0  0  0  0  0
    0.7145   -2.0625    0.0000 C   0  0  0  0  0  0  0  0  0  0  0  0
   -0.1105   -1.2375    0.0000 C   0  0  0  0  0  0  0  0  0  0  0  0
    1.5395   -1.2375    0.0000 C   0  0  0  0  0  0  0  0  0  0  0  0
    0.0000    0.0000    0.0000 C   0  0  0  0  0  0  0  0  0  0  0  0
   -0.7145   -0.4125    0.0000 O   0  0  0  0  0  0  0  0  0  0  0  0
    0.0000    0.8250    0.0000 C   0  0  0  0  0  0  0  0  0  0  0  0
   -0.7145    1.2375    0.0000 Cl  0  0  0  0  0  0  0  0  0  0  0  0
  1  2  1  0  0  0  0
  2  3  4  0  0  0  0
  3  4  4  0  0  0  0
  4  5  2  0  0  0  0
  4  6  4  0  0  0  0
  6  7  1  0  0  0  0
  7  8  1  0  0  0  0
  7  9  1  0  0  0  0
  7 10  1  0  0  0  0
  6 11  4  0  0  0  0
 11 12  2  0  0  0  0
 11 13  4  0  0  0  0
  2 13  4  0  0  0  0
 13 14  1  0  0  0  0
M  STY  1   1 DAT
M  SAL   1  1   3
M  SDT   1 MRV_IMPLICIT_H                                        
M  SDD   1     0.5304   -0.4125    DR    ALL  0       0  
M  SED   1 IMPL_H1
M  END
> <activity>
14.6

> <InChiKey>
NBQCNZYJJMBDKY-UHFFFAOYSA-N

$$$$

  Mrv2220 08292413132D          

 15 14  0  0  0  0            999 V2000
   -2.0329   -4.1250    0.0000 C   0  0  0  0  0  0  0  0  0  0  0  0
   -1.3184   -3.7125    0.0000 C   0  0  0  0  0  0  0  0  0  0  0  0
   -1.3184   -2.8875    0.0000 O   0  0  0  0  0  0  0  0  0  0  0  0
   -0.6039   -2.4750    0.0000 P   0  0  0  0  0  0  0  0  0  0  0  0
   -0.1914   -3.1895    0.0000 S   0  0  0  0  0  0  0  0  0  0  0  0
   -1.0164   -1.7605    0.0000 O   0  0  0  0  0  0  0  0  0  0  0  0
   -0.6039   -1.0461    0.0000 C   0  0  0  0  0  0  0  0  0  0  0  0
   -1.0164   -0.3316    0.0000 C   0  0  0  0  0  0  0  0  0  0  0  0
    0.1105   -2.0625    0.0000 S   0  0  0  0  0  0  0  0  0  0  0  0
    0.1105   -1.2375    0.0000 C   0  0  0  0  0  0  0  0  0  0  0  0
    0.8250   -0.8250    0.0000 S   0  0  0  0  0  0  0  0  0  0  0  0
    0.8250    0.0000    0.0000 C   0  0  0  0  0  0  0  0  0  0  0  0
    0.8250    0.8250    0.0000 C   0  0  0  0  0  0  0  0  0  0  0  0
    1.6500   -0.0000    0.0000 C   0  0  0  0  0  0  0  0  0  0  0  0
    0.0000    0.0000    0.0000 C   0  0  0  0  0  0  0  0  0  0  0  0
  1  2  1  0  0  0  0
  2  3  1  0  0  0  0
  3  4  1  0  0  0  0
  4  5  2  0  0  0  0
  4  6  1  0  0  0  0
  6  7  1  0  0  0  0
  7  8  1  0  0  0  0
  4  9  1  0  0  0  0
  9 10  1  0  0  0  0
 10 11  1  0  0  0  0
 11 12  1  0  0  0  0
 12 13  1  0  0  0  0
 12 14  1  0  0  0  0
 12 15  1  0  0  0  0
M  END
> <activity>
75.3

> <InChiKey>
XLNZEKHULJKQBA-UHFFFAOYSA-N

$$$$

  Mrv2220 08292413132D          

 15 15  0  0  0  0            999 V2000
    1.4289    3.3000    0.0000 C   0  0  0  0  0  0  0  0  0  0  0  0
    1.4289    2.4750    0.0000 C   0  0  0  0  0  0  0  0  0  0  0  0
    0.7145    2.0625    0.0000 N   0  0  0  0  0  0  0  0  0  0  0  0
    0.7145    1.2375    0.0000 C   0  0  0  0  0  0  0  0  0  0  0  0
    1.4289    0.8250    0.0000 N   0  0  0  0  0  0  0  0  0  0  0  0
    1.4289   -0.0000    0.0000 C   0  0  0  0  0  0  0  0  0  0  0  0
    2.1434   -0.4125    0.0000 Cl  0  0  0  0  0  0  0  0  0  0  0  0
    0.7145   -0.4125    0.0000 N   0  0  0  0  0  0  0  0  0  0  0  0
    0.0000    0.0000    0.0000 C   0  0  0  0  0  0  0  0  0  0  0  0
   -0.7145   -0.4125    0.0000 N   0  0  0  0  0  0  0  0  0  0  0  0
   -0.7145   -1.2375    0.0000 C   0  0  0  0  0  0  0  0  0  0  0  0
   -0.7145   -2.0625    0.0000 C   0  0  0  0  0  0  0  0  0  0  0  0
   -1.5395   -1.2375    0.0000 C   0  0  0  0  0  0  0  0  0  0  0  0
    0.1105   -1.2375    0.0000 C   0  0  0  0  0  0  0  0  0  0  0  0
    0.0000    0.8250    0.0000 N   0  0  0  0  0  0  0  0  0  0  0  0
  1  2  1  0  0  0  0
  2  3  1  0  0  0  0
  3  4  1  0  0  0  0
  4  5  4  0  0  0  0
  5  6  4  0  0  0  0
  6  7  1  0  0  0  0
  6  8  4  0  0  0  0
  8  9  4  0  0  0  0
  9 10  1  0  0  0  0
 10 11  1  0  0  0  0
 11 12  1  0  0  0  0
 11 13  1  0  0  0  0
 11 14  1  0  0  0  0
  9 15  4  0  0  0  0
  4 15  4  0  0  0  0
M  END
> <activity>
61.0

> <InChiKey>
FZXISNSWEXTPMF-UHFFFAOYSA-N

$$$$

  Mrv2220 08292413132D          

 11 11  0  0  0  0            999 V2000
    0.7145    2.0625    0.0000 C   0  0  0  0  0  0  0  0  0  0  0  0
    0.7145    1.2375    0.0000 C   0  0  0  0  0  0  0  0  0  0  0  0
    1.4289    0.8250    0.0000 C   0  0  0  0  0  0  0  0  0  0  0  0
    1.4289   -0.0000    0.0000 C   0  0  0  0  0  0  0  0  0  0  0  0
    0.7145   -0.4125    0.0000 C   0  0  0  0  0  0  0  0  0  0  0  0
    0.7145   -1.2375    0.0000 C   0  0  0  0  0  0  0  0  0  0  0  0
    0.7145   -2.0625    0.0000 C   0  0  0  0  0  0  0  0  0  0  0  0
   -0.1105   -1.2375    0.0000 C   0  0  0  0  0  0  0  0  0  0  0  0
    1.5395   -1.2375    0.0000 O   0  0  0  0  0  0  0  0  0  0  0  0
    0.0000    0.0000    0.0000 C   0  0  0  0  0  0  0  0  0  0  0  0
    0.0000    0.8250    0.0000 C   0  0  0  0  0  0  0  0  0  0  0  0
  1  2  1  0  0  0  0
  2  3  2  0  0  0  0
  3  4  1  0  0  0  0
  4  5  1  0  0  0  0
  5  6  1  0  0  0  0
  6  7  1  0  0  0  0
  6  8  1  0  0  0  0
  6  9  1  0  0  0  0
  5 10  1  0  0  0  0
 10 11  1  0  0  0  0
  2 11  1  0  0  0  0
M  END
> <activity>
3.6

> <InChiKey>
WUOACPNHFRMFPN-UHFFFAOYSA-N

$$$$

  Mrv2220 08292413132D          

 10 10  0  0  0  0            999 V2000
    0.7145    2.0625    0.0000 C   0  0  0  0  0  0  0  0  0  0  0  0
    0.7145    1.2375    0.0000 C   0  0  0  0  0  0  0  0  0  0  0  0
    1.4289    0.8250    0.0000 C   0  0  0  0  0  0  0  0  0  0  0  0
    1.4289   -0.0000    0.0000 C   0  0  0  0  0  0  0  0  0  0  0  0
    0.7145   -0.4125    0.0000 C   0  0  0  0  0  0  0  0  0  0  0  0
    0.7145   -1.2375    0.0000 C   0  0  0  0  0  0  0  0  0  0  0  0
    1.4289   -1.6500    0.0000 C   0  0  0  0  0  0  0  0  0  0  0  0
   -0.0000   -1.6500    0.0000 C   0  0  0  0  0  0  0  0  0  0  0  0
    0.0000    0.0000    0.0000 C   0  0  0  0  0  0  0  0  0  0  0  0
    0.0000    0.8250    0.0000 C   0  0  0  0  0  0  0  0  0  0  0  0
  1  2  1  0  0  0  0
  2  3  2  0  0  0  0
  3  4  1  0  0  0  0
  4  5  1  0  0  0  0
  5  6  2  0  0  0  0
  6  7  1  0  0  0  0
  6  8  1  0  0  0  0
  5  9  1  0  0  0  0
  9 10  1  0  0  0  0
  2 10  1  0  0  0  0
M  END
> <activity>
19.0

> <InChiKey>
MOYAFQVGZZPNRA-UHFFFAOYSA-N

$$$$

  Mrv2220 08292413132D          

 15 15  0  0  0  0            999 V2000
   -0.7145    4.5375    0.0000 C   0  0  0  0  0  0  0  0  0  0  0  0
    0.0000    4.1250    0.0000 C   0  0  0  0  0  0  0  0  0  0  0  0
    0.0000    3.3000    0.0000 C   0  0  0  0  0  0  0  0  0  0  0  0
   -0.7145    2.8875    0.0000 O   0  0  0  0  0  0  0  0  0  0  0  0
    0.7145    2.8875    0.0000 O   0  0  0  0  0  0  0  0  0  0  0  0
    0.7145    2.0625    0.0000 C   0  0  0  0  0  0  0  0  0  0  0  0
   -0.1105    2.0625    0.0000 C   0  0  0  0  0  0  0  0  0  0  0  0
    1.5395    2.0625    0.0000 C   0  0  0  0  0  0  0  0  0  0  0  0
    0.7145    1.2375    0.0000 C   0  0  0  0  0  0  0  0  0  0  0  0
    1.4289    0.8250    0.0000 C   0  0  0  0  0  0  0  0  0  0  0  0
    1.4289   -0.0000    0.0000 C   0  0  0  0  0  0  0  0  0  0  0  0
    0.7145   -0.4125    0.0000 C   0  0  0  0  0  0  0  0  0  0  0  0
    0.7145   -1.2375    0.0000 C   0  0  0  0  0  0  0  0  0  0  0  0
    0.0000    0.0000    0.0000 C   0  0  0  0  0  0  0  0  0  0  0  0
    0.0000    0.8250    0.0000 C   0  0  0  0  0  0  0  0  0  0  0  0
  1  2  1  0  0  0  0
  2  3  1  0  0  0  0
  3  4  2  0  0  0  0
  3  5  1  0  0  0  0
  5  6  1  0  0  0  0
  6  7  1  0  0  0  0
  6  8  1  0  0  0  0
  6  9  1  0  0  0  0
  9 10  1  0  0  0  0
 10 11  1  0  0  0  0
 11 12  2  0  0  0  0
 12 13  1  0  0  0  0
 12 14  1  0  0  0  0
 14 15  1  0  0  0  0
  9 15  1  0  0  0  0
M  END
> <activity>
11.6

> <InChiKey>
CMKQOKAXUWQAHG-UHFFFAOYSA-N

$$$$

  Mrv2220 08292413132D          

  8  7  0  0  0  0            999 V2000
    0.1105   -2.0625    0.0000 C   0  0  0  0  0  0  0  0  0  0  0  0
    0.1105   -1.2375    0.0000 C   0  0  0  0  0  0  0  0  0  0  0  0
   -0.6039   -0.8250    0.0000 O   0  0  0  0  0  0  0  0  0  0  0  0
    0.8250   -0.8250    0.0000 O   0  0  0  0  0  0  0  0  0  0  0  0
    0.8250    0.0000    0.0000 C   0  0  0  0  0  0  0  0  0  0  0  0
    0.8250    0.8250    0.0000 C   0  0  0  0  0  0  0  0  0  0  0  0
    1.6500   -0.0000    0.0000 C   0  0  0  0  0  0  0  0  0  0  0  0
    0.0000    0.0000    0.0000 C   0  0  0  0  0  0  0  0  0  0  0  0
  1  2  1  0  0  0  0
  2  3  2  0  0  0  0
  2  4  1  0  0  0  0
  4  5  1  0  0  0  0
  5  6  1  0  0  0  0
  5  7  1  0  0  0  0
  5  8  1  0  0  0  0
M  END
> <activity>
-0.7

> <InChiKey>
WMOVHXAZOJBABW-UHFFFAOYSA-N

$$$$

  Mrv2220 08292413132D          

 14 14  0  0  0  0            999 V2000
   -1.4289    4.1250    0.0000 C   0  0  0  0  0  0  0  0  0  0  0  0
   -0.7145    3.7125    0.0000 C   0  0  0  0  0  0  0  0  0  0  0  0
   -1.1270    2.9980    0.0000 C   0  0  0  0  0  0  0  0  0  0  0  0
   -0.3020    4.4270    0.0000 C   0  0  0  0  0  0  0  0  0  0  0  0
    0.0000    3.3000    0.0000 O   0  0  0  0  0  0  0  0  0  0  0  0
    0.0000    2.4750    0.0000 O   0  0  0  0  0  0  0  0  0  0  0  0
    0.7145    2.0625    0.0000 C   0  0  0  0  0  0  0  0  0  0  0  0
    1.4289    2.4750    0.0000 O   0  0  0  0  0  0  0  0  0  0  0  0
    0.7145    1.2375    0.0000 C   0  0  0  0  0  0  0  0  0  0  0  0
    1.4289    0.8250    0.0000 C   0  0  0  0  0  0  0  0  0  0  0  0
    1.4289   -0.0000    0.0000 C   0  0  0  0  0  0  0  0  0  0  0  0
    0.7145   -0.4125    0.0000 C   0  0  0  0  0  0  0  0  0  0  0  0
    0.0000    0.0000    0.0000 C   0  0  0  0  0  0  0  0  0  0  0  0
    0.0000    0.8250    0.0000 C   0  0  0  0  0  0  0  0  0  0  0  0
  1  2  1  0  0  0  0
  2  3  1  0  0  0  0
  2  4  1  0  0  0  0
  2  5  1  0  0  0  0
  5  6  1  0  0  0  0
  6  7  1  0  0  0  0
  7  8  2  0  0  0  0
  7  9  1  0  0  0  0
  9 10  4  0  0  0  0
 10 11  4  0  0  0  0
 11 12  4  0  0  0  0
 12 13  4  0  0  0  0
 13 14  4  0  0  0  0
  9 14  4  0  0  0  0
M  END
> <activity>
21.4

> <InChiKey>
GJBRNHKUVLOCEB-UHFFFAOYSA-N

$$$$

  Mrv2220 08292413132D          

  5  4  0  0  0  0            999 V2000
    0.8250   -0.8250    0.0000 C   0  0  0  0  0  0  0  0  0  0  0  0
    0.8250    0.0000    0.0000 C   0  0  0  0  0  0  0  0  0  0  0  0
    0.8250    0.8250    0.0000 C   0  0  0  0  0  0  0  0  0  0  0  0
    1.6500   -0.0000    0.0000 C   0  0  0  0  0  0  0  0  0  0  0  0
    0.0000    0.0000    0.0000 N   0  0  0  0  0  0  0  0  0  0  0  0
  1  2  1  0  0  0  0
  2  3  1  0  0  0  0
  2  4  1  0  0  0  0
  2  5  1  0  0  0  0
M  END
> <activity>
9.9

> <InChiKey>
YBRBMKDOPFTVDT-UHFFFAOYSA-N

$$$$

  Mrv2220 08292413132D          

 10 10  0  0  0  0            999 V2000
    0.7145    2.8875    0.0000 C   0  0  0  0  0  0  0  0  0  0  0  0
    0.7145    2.0625    0.0000 C   0  0  0  0  0  0  0  0  0  0  0  0
   -0.1105    2.0625    0.0000 C   0  0  0  0  0  0  0  0  0  0  0  0
    1.5395    2.0625    0.0000 C   0  0  0  0  0  0  0  0  0  0  0  0
    0.7145    1.2375    0.0000 C   0  0  0  0  0  0  0  0  0  0  0  0
    1.4289    0.8250    0.0000 C   0  0  0  0  0  0  0  0  0  0  0  0
    1.4289   -0.0000    0.0000 C   0  0  0  0  0  0  0  0  0  0  0  0
    0.7145   -0.4125    0.0000 C   0  0  0  0  0  0  0  0  0  0  0  0
    0.0000    0.0000    0.0000 C   0  0  0  0  0  0  0  0  0  0  0  0
    0.0000    0.8250    0.0000 C   0  0  0  0  0  0  0  0  0  0  0  0
  1  2  1  0  0  0  0
  2  3  1  0  0  0  0
  2  4  1  0  0  0  0
  2  5  1  0  0  0  0
  5  6  4  0  0  0  0
  6  7  4  0  0  0  0
  7  8  4  0  0  0  0
  8  9  4  0  0  0  0
  9 10  4  0  0  0  0
  5 10  4  0  0  0  0
M  END
> <activity>
-1.2

> <InChiKey>
YTZKOQUCBOVLHL-UHFFFAOYSA-N

$$$$

  Mrv2220 08292413132D          

 10  9  0  0  0  0            999 V2000
   -1.3184   -3.7125    0.0000 C   0  0  0  0  0  0  0  0  0  0  0  0
   -0.6039   -3.3000    0.0000 C   0  0  0  0  0  0  0  0  0  0  0  0
   -0.6039   -2.4750    0.0000 C   0  0  0  0  0  0  0  0  0  0  0  0
    0.1105   -2.0625    0.0000 C   0  0  0  0  0  0  0  0  0  0  0  0
    0.1105   -1.2375    0.0000 C   0  0  0  0  0  0  0  0  0  0  0  0
    0.8250   -0.8250    0.0000 C   0  0  0  0  0  0  0  0  0  0  0  0
    0.8250    0.0000    0.0000 C   0  0  0  0  0  0  0  0  0  0  0  0
    0.8250    0.8250    0.0000 C   0  0  0  0  0  0  0  0  0  0  0  0
    1.6500   -0.0000    0.0000 C   0  0  0  0  0  0  0  0  0  0  0  0
    0.0000    0.0000    0.0000 S   0  0  0  0  0  0  0  0  0  0  0  0
  1  2  1  0  0  0  0
  2  3  1  0  0  0  0
  3  4  1  0  0  0  0
  4  5  1  0  0  0  0
  5  6  1  0  0  0  0
  6  7  1  0  0  0  0
  7  8  1  0  0  0  0
  7  9  1  0  0  0  0
  7 10  1  0  0  0  0
M  END
> <activity>
11.2

> <InChiKey>
MPBLPZLNKKGCGP-UHFFFAOYSA-N

$$$$

  Mrv2220 08292413132D          

 25 28  0  0  0  0            999 V2000
    0.4211   -3.5665    0.0000 C   0  0  0  0  0  0  0  0  0  0  0  0
    1.2383   -3.6793    0.0000 C   0  0  0  0  0  0  0  0  0  0  0  0
    1.7447   -3.0280    0.0000 C   0  0  0  0  0  0  0  0  0  0  0  0
    1.4338   -2.2638    0.0000 O   0  0  0  0  0  0  0  0  0  0  0  0
    2.5619   -3.1408    0.0000 O   0  0  0  0  0  0  0  0  0  0  0  0
    3.0683   -2.4895    0.0000 C   0  0  0  0  0  0  0  0  0  0  0  0
    2.8390   -1.6970    0.0000 C   0  0  0  0  0  0  0  0  0  0  0  0
    3.5218   -1.2340    0.0000 C   0  0  0  0  0  0  0  0  0  0  0  0
    4.1731   -1.7404    0.0000 C   0  0  0  0  0  0  0  0  0  0  0  0
    4.9853   -1.5952    0.0000 C   0  0  0  0  0  0  0  0  0  0  0  0
    5.2655   -0.8192    0.0000 C   0  0  0  0  0  0  0  0  0  0  0  0
    6.0777   -0.6740    0.0000 C   0  0  0  0  0  0  0  0  0  0  0  0
    6.6095   -1.3047    0.0000 C   0  0  0  0  0  0  0  0  0  0  0  0
    7.4216   -1.1595    0.0000 C   0  0  0  0  0  0  0  0  0  0  0  0
    7.9534   -1.7902    0.0000 C   0  0  0  0  0  0  0  0  0  0  0  0
    8.7655   -1.6450    0.0000 O   0  0  0  0  0  0  0  0  0  0  0  0
    7.6731   -2.5662    0.0000 C   0  0  0  0  0  0  0  0  0  0  0  0
    6.8610   -2.7114    0.0000 C   0  0  0  0  0  0  0  0  0  0  0  0
    6.3292   -2.0807    0.0000 C   0  0  0  0  0  0  0  0  0  0  0  0
    6.0489   -2.8566    0.0000 C   0  0  0  0  0  0  0  0  0  0  0  0
    5.5171   -2.2259    0.0000 C   0  0  0  0  0  0  0  0  0  0  0  0
    5.2368   -3.0018    0.0000 C   0  0  0  0  0  0  0  0  0  0  0  0
    4.4247   -3.1470    0.0000 C   0  0  0  0  0  0  0  0  0  0  0  0
    3.8928   -2.5163    0.0000 C   0  0  0  0  0  0  0  0  0  0  0  0
    3.5330   -3.2587    0.0000 C   0  0  0  0  0  0  0  0  0  0  0  0
  1  2  1  0  0  0  0
  2  3  1  0  0  0  0
  3  4  2  0  0  0  0
  3  5  1  0  0  0  0
  5  6  1  0  0  0  0
  6  7  1  0  0  0  0
  7  8  1  0  0  0  0
  8  9  1  0  0  0  0
  9 10  1  0  0  0  0
 10 11  1  0  0  0  0
 11 12  1  0  0  0  0
 12 13  1  0  0  0  0
 13 14  2  0  0  0  0
 14 15  1  0  0  0  0
 15 16  2  0  0  0  0
 15 17  1  0  0  0  0
 17 18  1  0  0  0  0
 18 19  1  0  0  0  0
 13 19  1  0  0  0  0
 19 20  1  0  0  0  0
 19 21  1  0  0  0  0
 10 21  1  0  0  0  0
 21 22  1  0  0  0  0
 22 23  1  0  0  0  0
 23 24  1  0  0  0  0
  6 24  1  0  0  0  0
  9 24  1  0  0  0  0
 24 25  1  0  0  0  0
M  END
> <activity>
31.3

> <InChiKey>
PDMMFKSKQVNJMI-UHFFFAOYSA-N

$$$$

  Mrv2220 08292413132D          

 22 23  0  0  0  0            999 V2000
    1.4289    0.8250    0.0000 O   0  0  0  0  0  0  0  0  0  0  0  0
    1.4289    0.0000    0.0000 C   0  0  0  0  0  0  0  0  0  0  0  0
    0.7145   -0.4125    0.0000 O   0  0  0  0  0  0  0  0  0  0  0  0
    2.1434   -0.4125    0.0000 C   0  0  0  0  0  0  0  0  0  0  0  0
    2.1434   -1.2375    0.0000 C   0  0  0  0  0  0  0  0  0  0  0  0
    2.8579   -1.6500    0.0000 C   0  0  0  0  0  0  0  0  0  0  0  0
    2.8579   -2.4750    0.0000 C   0  0  0  0  0  0  0  0  0  0  0  0
    3.5724   -2.8875    0.0000 I   0  0  0  0  0  0  0  0  0  0  0  0
    2.1434   -2.8875    0.0000 C   0  0  0  0  0  0  0  0  0  0  0  0
    2.1434   -3.7125    0.0000 O   0  0  0  0  0  0  0  0  0  0  0  0
    1.4289   -4.1250    0.0000 C   0  0  0  0  0  0  0  0  0  0  0  0
    1.4289   -4.9500    0.0000 C   0  0  0  0  0  0  0  0  0  0  0  0
    0.7145   -5.3625    0.0000 C   0  0  0  0  0  0  0  0  0  0  0  0
    0.7145   -6.1875    0.0000 I   0  0  0  0  0  0  0  0  0  0  0  0
   -0.0000   -4.9500    0.0000 C   0  0  0  0  0  0  0  0  0  0  0  0
   -0.7145   -5.3625    0.0000 O   0  0  0  0  0  0  0  0  0  0  0  0
    0.0000   -4.1250    0.0000 C   0  0  0  0  0  0  0  0  0  0  0  0
   -0.7145   -3.7125    0.0000 I   0  0  0  0  0  0  0  0  0  0  0  0
    0.7145   -3.7125    0.0000 C   0  0  0  0  0  0  0  0  0  0  0  0
    1.4289   -2.4750    0.0000 C   0  0  0  0  0  0  0  0  0  0  0  0
    0.7145   -2.8875    0.0000 I   0  0  0  0  0  0  0  0  0  0  0  0
    1.4289   -1.6500    0.0000 C   0  0  0  0  0  0  0  0  0  0  0  0
  1  2  2  0  0  0  0
  2  3  1  0  0  0  0
  2  4  1  0  0  0  0
  4  5  1  0  0  0  0
  5  6  4  0  0  0  0
  6  7  4  0  0  0  0
  7  8  1  0  0  0  0
  7  9  4  0  0  0  0
  9 10  1  0  0  0  0
 10 11  1  0  0  0  0
 11 12  4  0  0  0  0
 12 13  4  0  0  0  0
 13 14  1  0  0  0  0
 13 15  4  0  0  0  0
 15 16  1  0  0  0  0
 15 17  4  0  0  0  0
 17 18  1  0  0  0  0
 17 19  4  0  0  0  0
 11 19  4  0  0  0  0
  9 20  4  0  0  0  0
 20 21  1  0  0  0  0
 20 22  4  0  0  0  0
  5 22  4  0  0  0  0
M  END
> <activity>
105.0

> <InChiKey>
PPJYSSNKSXAVDB-UHFFFAOYSA-N

$$$$

  Mrv2220 08292413132D          

 23 24  0  0  0  0            999 V2000
   -0.6078    4.3527    0.0000 F   0  0  0  0  0  0  0  0  0  0  0  0
   -1.3222    3.9402    0.0000 C   0  0  0  0  0  0  0  0  0  0  0  0
   -2.0367    4.3527    0.0000 F   0  0  0  0  0  0  0  0  0  0  0  0
   -1.3222    3.1152    0.0000 C   0  0  0  0  0  0  0  0  0  0  0  0
   -2.1472    3.1152    0.0000 F   0  0  0  0  0  0  0  0  0  0  0  0
   -0.4972    3.1152    0.0000 F   0  0  0  0  0  0  0  0  0  0  0  0
   -1.3222    2.2902    0.0000 O   0  0  0  0  0  0  0  0  0  0  0  0
   -2.0367    1.8777    0.0000 C   0  0  0  0  0  0  0  0  0  0  0  0
   -2.0367    1.0527    0.0000 C   0  0  0  0  0  0  0  0  0  0  0  0
   -1.3222    0.6402    0.0000 C   0  0  0  0  0  0  0  0  0  0  0  0
   -1.3222   -0.1848    0.0000 N   0  0  0  0  0  0  0  0  0  0  0  0
   -0.6548   -0.6697    0.0000 C   0  0  0  0  0  0  0  0  0  0  0  0
   -0.9097   -1.4544    0.0000 N   0  0  0  0  0  0  0  0  0  0  0  0
   -1.7347   -1.4544    0.0000 C   0  0  0  0  0  0  0  0  0  0  0  0
   -1.9897   -0.6697    0.0000 N   0  0  0  0  0  0  0  0  0  0  0  0
   -2.7512    0.6402    0.0000 C   0  0  0  0  0  0  0  0  0  0  0  0
   -2.7512   -0.1848    0.0000 C   0  0  0  0  0  0  0  0  0  0  0  0
   -3.4656   -0.5973    0.0000 C   0  0  0  0  0  0  0  0  0  0  0  0
   -4.1801   -0.1848    0.0000 C   0  0  0  0  0  0  0  0  0  0  0  0
   -4.8946   -0.5973    0.0000 Cl  0  0  0  0  0  0  0  0  0  0  0  0
   -4.1801    0.6402    0.0000 C   0  0  0  0  0  0  0  0  0  0  0  0
   -3.4656    1.0527    0.0000 C   0  0  0  0  0  0  0  0  0  0  0  0
   -3.4656    1.8777    0.0000 Cl  0  0  0  0  0  0  0  0  0  0  0  0
  1  2  1  0  0  0  0
  2  3  1  0  0  0  0
  2  4  1  0  0  0  0
  4  5  1  0  0  0  0
  4  6  1  0  0  0  0
  4  7  1  0  0  0  0
  7  8  1  0  0  0  0
  8  9  1  0  0  0  0
  9 10  1  0  0  0  0
 10 11  1  0  0  0  0
 11 12  4  0  0  0  0
 12 13  4  0  0  0  0
 13 14  4  0  0  0  0
 14 15  4  0  0  0  0
 11 15  4  0  0  0  0
  9 16  1  0  0  0  0
 16 17  4  0  0  0  0
 17 18  4  0  0  0  0
 18 19  4  0  0  0  0
 19 20  1  0  0  0  0
 19 21  4  0  0  0  0
 21 22  4  0  0  0  0
 16 22  4  0  0  0  0
 22 23  1  0  0  0  0
M  END
> <activity>
72.3

> <InChiKey>
LQDARGUHUSPFNL-UHFFFAOYSA-N

$$$$

  Mrv2220 08292413132D          

 16 15  0  0  0  0            999 V2000
   -0.1127   -3.1046    0.0000 C   0  0  0  0  0  0  0  0  0  0  0  0
    0.6974   -2.9487    0.0000 C   0  0  0  0  0  0  0  0  0  0  0  0
    1.2375   -3.5724    0.0000 N   0  0  0  0  0  0  0  0  0  0  0  0
    0.9675   -4.3519    0.0000 C   0  0  0  0  0  0  0  0  0  0  0  0
    0.1573   -4.5078    0.0000 C   0  0  0  0  0  0  0  0  0  0  0  0
    2.0476   -3.4164    0.0000 C   0  0  0  0  0  0  0  0  0  0  0  0
    2.3177   -2.6369    0.0000 S   0  0  0  0  0  0  0  0  0  0  0  0
    2.5877   -4.0401    0.0000 S   0  0  0  0  0  0  0  0  0  0  0  0
    3.3979   -3.8842    0.0000 S   0  0  0  0  0  0  0  0  0  0  0  0
    3.9379   -4.5078    0.0000 C   0  0  0  0  0  0  0  0  0  0  0  0
    3.6679   -5.2874    0.0000 S   0  0  0  0  0  0  0  0  0  0  0  0
    4.7481   -4.3519    0.0000 N   0  0  0  0  0  0  0  0  0  0  0  0
    5.2882   -4.9755    0.0000 C   0  0  0  0  0  0  0  0  0  0  0  0
    6.0983   -4.8196    0.0000 C   0  0  0  0  0  0  0  0  0  0  0  0
    5.0181   -3.5724    0.0000 C   0  0  0  0  0  0  0  0  0  0  0  0
    5.8283   -3.4164    0.0000 C   0  0  0  0  0  0  0  0  0  0  0  0
  1  2  1  0  0  0  0
  2  3  1  0  0  0  0
  3  4  1  0  0  0  0
  4  5  1  0  0  0  0
  3  6  1  0  0  0  0
  6  7  2  0  0  0  0
  6  8  1  0  0  0  0
  8  9  1  0  0  0  0
  9 10  1  0  0  0  0
 10 11  2  0  0  0  0
 10 12  1  0  0  0  0
 12 13  1  0  0  0  0
 13 14  1  0  0  0  0
 12 15  1  0  0  0  0
 15 16  1  0  0  0  0
M  END
> <activity>
55.2

> <InChiKey>
AUZONCFQVSMFAP-UHFFFAOYSA-N

$$$$

  Mrv2220 08292413132D          

  7  7  0  0  0  0            999 V2000
   -0.1467    2.3518    0.0000 O   0  0  0  0  0  0  0  0  0  0  0  0
    0.5678    1.9393    0.0000 C   0  0  0  0  0  0  0  0  0  0  0  0
    0.5678    1.1143    0.0000 C   0  0  0  0  0  0  0  0  0  0  0  0
    1.2352    0.6294    0.0000 C   0  0  0  0  0  0  0  0  0  0  0  0
    0.9803   -0.1553    0.0000 C   0  0  0  0  0  0  0  0  0  0  0  0
    0.1553   -0.1553    0.0000 C   0  0  0  0  0  0  0  0  0  0  0  0
   -0.0997    0.6294    0.0000 O   0  0  0  0  0  0  0  0  0  0  0  0
  1  2  1  0  0  0  0
  2  3  1  0  0  0  0
  3  4  1  0  0  0  0
  4  5  1  0  0  0  0
  5  6  1  0  0  0  0
  6  7  1  0  0  0  0
  3  7  1  0  0  0  0
M  END
> <activity>
7.8

> <InChiKey>
BSYVTEYKTMYBMK-UHFFFAOYSA-N

$$$$

  Mrv2220 08292413132D          

 10 11  0  0  0  0            999 V2000
   -0.7145   -0.4125    0.0000 C   0  0  0  0  0  0  0  0  0  0  0  0
   -0.7145   -1.2375    0.0000 C   0  0  0  0  0  0  0  0  0  0  0  0
    0.0000   -1.6500    0.0000 C   0  0  0  0  0  0  0  0  0  0  0  0
    0.7145   -1.2375    0.0000 C   0  0  0  0  0  0  0  0  0  0  0  0
    0.7145   -0.4125    0.0000 C   0  0  0  0  0  0  0  0  0  0  0  0
    0.0000   -0.0000    0.0000 C   0  0  0  0  0  0  0  0  0  0  0  0
    1.4289   -0.0000    0.0000 C   0  0  0  0  0  0  0  0  0  0  0  0
    2.1434   -0.4125    0.0000 C   0  0  0  0  0  0  0  0  0  0  0  0
    2.1434   -1.2375    0.0000 C   0  0  0  0  0  0  0  0  0  0  0  0
    1.4289   -1.6500    0.0000 C   0  0  0  0  0  0  0  0  0  0  0  0
  1  2  4  0  0  0  0
  2  3  4  0  0  0  0
  3  4  4  0  0  0  0
  4  5  4  0  0  0  0
  5  6  4  0  0  0  0
  1  6  4  0  0  0  0
  5  7  1  0  0  0  0
  7  8  1  0  0  0  0
  8  9  1  0  0  0  0
  9 10  1  0  0  0  0
  4 10  1  0  0  0  0
M  END
> <activity>
8.9

> <InChiKey>
CXWXQJXEFPUFDZ-UHFFFAOYSA-N

$$$$

  Mrv2220 08292413132D          

 24 26  0  0  0  0            999 V2000
   -5.8804   -3.2539    0.0000 C   0  0  0  0  0  0  0  0  0  0  0  0
   -5.0554   -3.2539    0.0000 C   0  0  0  0  0  0  0  0  0  0  0  0
   -4.6429   -3.9683    0.0000 C   0  0  0  0  0  0  0  0  0  0  0  0
   -4.6429   -2.5394    0.0000 C   0  0  0  0  0  0  0  0  0  0  0  0
   -3.8179   -2.5394    0.0000 C   0  0  0  0  0  0  0  0  0  0  0  0
   -3.1034   -2.1269    0.0000 C   0  0  0  0  0  0  0  0  0  0  0  0
   -2.6909   -1.4124    0.0000 C   0  0  0  0  0  0  0  0  0  0  0  0
   -3.1034   -0.6979    0.0000 O   0  0  0  0  0  0  0  0  0  0  0  0
   -1.8659   -1.4124    0.0000 O   0  0  0  0  0  0  0  0  0  0  0  0
   -1.4534   -0.6979    0.0000 C   0  0  0  0  0  0  0  0  0  0  0  0
   -0.6284   -0.6979    0.0000 N   0  0  0  0  0  0  0  0  0  0  0  0
   -0.1435   -1.3654    0.0000 C   0  0  0  0  0  0  0  0  0  0  0  0
   -0.3984   -2.1500    0.0000 O   0  0  0  0  0  0  0  0  0  0  0  0
    0.6411   -1.1104    0.0000 C   0  0  0  0  0  0  0  0  0  0  0  0
    0.6411   -0.2854    0.0000 C   0  0  0  0  0  0  0  0  0  0  0  0
    1.3556    0.1271    0.0000 C   0  0  0  0  0  0  0  0  0  0  0  0
    2.0701   -0.2854    0.0000 C   0  0  0  0  0  0  0  0  0  0  0  0
    2.0701   -1.1104    0.0000 C   0  0  0  0  0  0  0  0  0  0  0  0
    1.3556   -1.5229    0.0000 C   0  0  0  0  0  0  0  0  0  0  0  0
   -0.1435   -0.0305    0.0000 C   0  0  0  0  0  0  0  0  0  0  0  0
   -0.3984    0.7541    0.0000 O   0  0  0  0  0  0  0  0  0  0  0  0
   -3.1034   -2.9519    0.0000 C   0  0  0  0  0  0  0  0  0  0  0  0
   -2.3557   -3.3005    0.0000 C   0  0  0  0  0  0  0  0  0  0  0  0
   -3.1753   -3.7737    0.0000 C   0  0  0  0  0  0  0  0  0  0  0  0
  1  2  1  0  0  0  0
  2  3  1  0  0  0  0
  2  4  2  0  0  0  0
  4  5  1  0  0  0  0
  5  6  1  0  0  0  0
  6  7  1  0  0  0  0
  7  8  2  0  0  0  0
  7  9  1  0  0  0  0
  9 10  1  0  0  0  0
 10 11  1  0  0  0  0
 11 12  1  0  0  0  0
 12 13  2  0  0  0  0
 12 14  1  0  0  0  0
 14 15  2  0  0  0  0
 15 16  1  0  0  0  0
 16 17  1  0  0  0  0
 17 18  1  0  0  0  0
 18 19  1  0  0  0  0
 14 19  1  0  0  0  0
 15 20  1  0  0  0  0
 11 20  1  0  0  0  0
 20 21  2  0  0  0  0
  6 22  1  0  0  0  0
  5 22  1  0  0  0  0
 22 23  1  0  0  0  0
 22 24  1  0  0  0  0
M  END
> <activity>
28.1

> <InChiKey>
CXBMCYHAMVGWJQ-UHFFFAOYSA-N

$$$$

  Mrv2220 08292413132D          

 17 16  0  0  0  0            999 V2000
   -1.4289    3.9039    0.0000 C   0  0  0  0  0  0  0  0  0  0  0  0
   -0.7145    3.4914    0.0000 C   0  0  0  0  0  0  0  0  0  0  0  0
   -0.7145    2.6664    0.0000 C   0  0  0  0  0  0  0  0  0  0  0  0
   -0.0000    2.2539    0.0000 O   0  0  0  0  0  0  0  0  0  0  0  0
   -0.0000    1.4289    0.0000 Si  0  0  0  0  0  0  0  0  0  0  0  0
   -0.0000    0.6039    0.0000 O   0  0  0  0  0  0  0  0  0  0  0  0
   -0.7145    0.1914    0.0000 C   0  0  0  0  0  0  0  0  0  0  0  0
   -0.7145   -0.6336    0.0000 C   0  0  0  0  0  0  0  0  0  0  0  0
    0.0000   -1.0461    0.0000 C   0  0  0  0  0  0  0  0  0  0  0  0
   -0.8250    1.4289    0.0000 O   0  0  0  0  0  0  0  0  0  0  0  0
   -1.2375    0.7145    0.0000 C   0  0  0  0  0  0  0  0  0  0  0  0
   -2.0625    0.7145    0.0000 C   0  0  0  0  0  0  0  0  0  0  0  0
   -2.4750    1.4289    0.0000 C   0  0  0  0  0  0  0  0  0  0  0  0
    0.8250    1.4289    0.0000 O   0  0  0  0  0  0  0  0  0  0  0  0
    1.2375    0.7145    0.0000 C   0  0  0  0  0  0  0  0  0  0  0  0
    0.8250    0.0000    0.0000 C   0  0  0  0  0  0  0  0  0  0  0  0
    0.0000    0.0000    0.0000 C   0  0  0  0  0  0  0  0  0  0  0  0
  1  2  1  0  0  0  0
  2  3  1  0  0  0  0
  3  4  1  0  0  0  0
  4  5  1  0  0  0  0
  5  6  1  0  0  0  0
  6  7  1  0  0  0  0
  7  8  1  0  0  0  0
  8  9  1  0  0  0  0
  5 10  1  0  0  0  0
 10 11  1  0  0  0  0
 11 12  1  0  0  0  0
 12 13  1  0  0  0  0
  5 14  1  0  0  0  0
 14 15  1  0  0  0  0
 15 16  1  0  0  0  0
 16 17  1  0  0  0  0
M  END
> <activity>
10.3

> <InChiKey>
ZQZCOBSUOFHDEE-UHFFFAOYSA-N

$$$$

  Mrv2220 08292413132D          

 19 21  0  0  0  0            999 V2000
   -2.6462   -0.6979    0.0000 O   0  0  0  0  0  0  0  0  0  0  0  0
   -1.8212   -0.6979    0.0000 C   0  0  0  0  0  0  0  0  0  0  0  0
   -1.4087    0.0165    0.0000 C   0  0  0  0  0  0  0  0  0  0  0  0
   -0.5837    0.0165    0.0000 C   0  0  0  0  0  0  0  0  0  0  0  0
   -0.1712   -0.6979    0.0000 C   0  0  0  0  0  0  0  0  0  0  0  0
    0.6538   -0.6979    0.0000 N   0  0  0  0  0  0  0  0  0  0  0  0
    1.1387   -0.0305    0.0000 C   0  0  0  0  0  0  0  0  0  0  0  0
    0.8838    0.7541    0.0000 O   0  0  0  0  0  0  0  0  0  0  0  0
    1.9233   -0.2854    0.0000 C   0  0  0  0  0  0  0  0  0  0  0  0
    2.6378    0.1271    0.0000 C   0  0  0  0  0  0  0  0  0  0  0  0
    3.3523   -0.2854    0.0000 C   0  0  0  0  0  0  0  0  0  0  0  0
    3.3523   -1.1104    0.0000 C   0  0  0  0  0  0  0  0  0  0  0  0
    2.6378   -1.5229    0.0000 C   0  0  0  0  0  0  0  0  0  0  0  0
    1.9233   -1.1104    0.0000 C   0  0  0  0  0  0  0  0  0  0  0  0
    1.1387   -1.3654    0.0000 C   0  0  0  0  0  0  0  0  0  0  0  0
    0.8838   -2.1500    0.0000 O   0  0  0  0  0  0  0  0  0  0  0  0
   -0.5837   -1.4124    0.0000 C   0  0  0  0  0  0  0  0  0  0  0  0
   -0.1712   -2.1269    0.0000 O   0  0  0  0  0  0  0  0  0  0  0  0
   -1.4087   -1.4124    0.0000 N   0  0  0  0  0  0  0  0  0  0  0  0
  1  2  2  0  0  0  0
  2  3  1  0  0  0  0
  3  4  1  0  0  0  0
  4  5  1  0  0  0  0
  5  6  1  0  0  0  0
  6  7  1  0  0  0  0
  7  8  2  0  0  0  0
  7  9  1  0  0  0  0
  9 10  4  0  0  0  0
 10 11  4  0  0  0  0
 11 12  4  0  0  0  0
 12 13  4  0  0  0  0
 13 14  4  0  0  0  0
  9 14  4  0  0  0  0
 14 15  1  0  0  0  0
  6 15  1  0  0  0  0
 15 16  2  0  0  0  0
  5 17  1  0  0  0  0
 17 18  2  0  0  0  0
 17 19  1  0  0  0  0
  2 19  1  0  0  0  0
M  END
> <activity>
-9.0

> <InChiKey>
UEJJHQNACJXSKW-UHFFFAOYSA-N

$$$$

  Mrv2220 08292413132D          

 13 14  0  0  0  0            999 V2000
    2.7845    0.6979    0.0000 C   0  0  0  0  0  0  0  0  0  0  0  0
    2.0701    1.1104    0.0000 N   0  0  0  0  0  0  0  0  0  0  0  0
    1.3556    0.6979    0.0000 C   0  0  0  0  0  0  0  0  0  0  0  0
    1.3556   -0.1271    0.0000 O   0  0  0  0  0  0  0  0  0  0  0  0
    0.6411    1.1104    0.0000 C   0  0  0  0  0  0  0  0  0  0  0  0
   -0.1435    0.8555    0.0000 N   0  0  0  0  0  0  0  0  0  0  0  0
   -0.6284    1.5229    0.0000 C   0  0  0  0  0  0  0  0  0  0  0  0
   -0.1435    2.1904    0.0000 N   0  0  0  0  0  0  0  0  0  0  0  0
    0.6411    1.9354    0.0000 C   0  0  0  0  0  0  0  0  0  0  0  0
    1.3556    2.3479    0.0000 N   0  0  0  0  0  0  0  0  0  0  0  0
    1.3556    3.1729    0.0000 C   0  0  0  0  0  0  0  0  0  0  0  0
    2.0701    1.9354    0.0000 C   0  0  0  0  0  0  0  0  0  0  0  0
    2.7845    2.3479    0.0000 O   0  0  0  0  0  0  0  0  0  0  0  0
  1  2  1  0  0  0  0
  2  3  4  0  0  0  0
  3  4  2  0  0  0  0
  3  5  4  0  0  0  0
  5  6  4  0  0  0  0
  6  7  4  0  0  0  0
  7  8  4  0  0  0  0
  8  9  4  0  0  0  0
  5  9  4  0  0  0  0
  9 10  4  0  0  0  0
 10 11  1  0  0  0  0
 10 12  4  0  0  0  0
  2 12  4  0  0  0  0
 12 13  2  0  0  0  0
M  STY  1   1 DAT
M  SAL   1  1   6
M  SDT   1 MRV_IMPLICIT_H                                        
M  SDD   1     0.5304   -0.4125    DR    ALL  0       0  
M  SED   1 IMPL_H1
M  END
> <activity>
9.4

> <InChiKey>
ZFXYFBGIUFBOJW-UHFFFAOYSA-N

$$$$

  Mrv2220 08292413132D          

 14 16  0  0  0  0            999 V2000
    3.3523    1.9354    0.0000 C   0  0  0  0  0  0  0  0  0  0  0  0
    3.3523    1.1104    0.0000 C   0  0  0  0  0  0  0  0  0  0  0  0
    2.6378    0.6979    0.0000 C   0  0  0  0  0  0  0  0  0  0  0  0
    1.9233    1.1104    0.0000 C   0  0  0  0  0  0  0  0  0  0  0  0
    1.1387    0.8555    0.0000 N   0  0  0  0  0  0  0  0  0  0  0  0
    0.6538    1.5229    0.0000 C   0  0  0  0  0  0  0  0  0  0  0  0
   -0.1712    1.5229    0.0000 C   0  0  0  0  0  0  0  0  0  0  0  0
   -0.6561    0.8555    0.0000 C   0  0  0  0  0  0  0  0  0  0  0  0
   -1.4407    1.1104    0.0000 S   0  0  0  0  0  0  0  0  0  0  0  0
   -1.4407    1.9354    0.0000 C   0  0  0  0  0  0  0  0  0  0  0  0
   -0.6561    2.1904    0.0000 N   0  0  0  0  0  0  0  0  0  0  0  0
    1.1387    2.1904    0.0000 N   0  0  0  0  0  0  0  0  0  0  0  0
    1.9233    1.9354    0.0000 C   0  0  0  0  0  0  0  0  0  0  0  0
    2.6378    2.3479    0.0000 C   0  0  0  0  0  0  0  0  0  0  0  0
  1  2  4  0  0  0  0
  2  3  4  0  0  0  0
  3  4  4  0  0  0  0
  4  5  4  0  0  0  0
  5  6  4  0  0  0  0
  6  7  1  0  0  0  0
  7  8  4  0  0  0  0
  8  9  4  0  0  0  0
  9 10  4  0  0  0  0
 10 11  4  0  0  0  0
  7 11  4  0  0  0  0
  6 12  4  0  0  0  0
 12 13  4  0  0  0  0
  4 13  4  0  0  0  0
 13 14  4  0  0  0  0
  1 14  4  0  0  0  0
M  STY  1   1 DAT
M  SAL   1  1   5
M  SDT   1 MRV_IMPLICIT_H                                        
M  SDD   1     0.5304   -0.4125    DR    ALL  0       0  
M  SED   1 IMPL_H1
M  END
> <activity>
21.8

> <InChiKey>
WJCNZQLZVWNLKY-UHFFFAOYSA-N

$$$$

  Mrv2220 08292413132D          

 18 19  0  0  0  0            999 V2000
    3.5724    6.7661    0.0000 C   0  0  0  0  0  0  0  0  0  0  0  0
    3.5724    5.9411    0.0000 N   0  0  0  0  0  0  0  0  0  0  0  0
    4.2868    5.5286    0.0000 C   0  0  0  0  0  0  0  0  0  0  0  0
    4.2868    4.7036    0.0000 O   0  0  0  0  0  0  0  0  0  0  0  0
    3.5724    4.2911    0.0000 C   0  0  0  0  0  0  0  0  0  0  0  0
    2.8579    4.7036    0.0000 N   0  0  0  0  0  0  0  0  0  0  0  0
    2.1434    4.2911    0.0000 C   0  0  0  0  0  0  0  0  0  0  0  0
    2.1434    3.4661    0.0000 C   0  0  0  0  0  0  0  0  0  0  0  0
    2.8109    2.9812    0.0000 C   0  0  0  0  0  0  0  0  0  0  0  0
    2.5559    2.1965    0.0000 N   0  0  0  0  0  0  0  0  0  0  0  0
    1.7309    2.1965    0.0000 C   0  0  0  0  0  0  0  0  0  0  0  0
    1.2460    1.5291    0.0000 Cl  0  0  0  0  0  0  0  0  0  0  0  0
    1.4760    2.9812    0.0000 S   0  0  0  0  0  0  0  0  0  0  0  0
    2.8579    5.5286    0.0000 C   0  0  0  0  0  0  0  0  0  0  0  0
    2.1434    5.9411    0.0000 N   0  0  0  0  0  0  0  0  0  0  0  0
    1.4289    5.5286    0.0000 N   0  3  0  0  0  0  0  0  0  0  0  0
    1.4289    4.7036    0.0000 O   0  0  0  0  0  0  0  0  0  0  0  0
    0.7145    5.9411    0.0000 O   0  5  0  0  0  0  0  0  0  0  0  0
  1  2  1  0  0  0  0
  2  3  1  0  0  0  0
  3  4  1  0  0  0  0
  4  5  1  0  0  0  0
  5  6  1  0  0  0  0
  6  7  1  0  0  0  0
  7  8  1  0  0  0  0
  8  9  4  0  0  0  0
  9 10  4  0  0  0  0
 10 11  4  0  0  0  0
 11 12  1  0  0  0  0
 11 13  4  0  0  0  0
  8 13  4  0  0  0  0
  6 14  1  0  0  0  0
  2 14  1  0  0  0  0
 14 15  2  0  0  0  0
 15 16  1  4  0  0  0
 16 17  2  0  0  0  0
 16 18  1  0  0  0  0
M  CHG  2  16   1  18  -1
M  END
> <activity>
1.0

> <InChiKey>
NWWZPOKUUAIXIW-UHFFFAOYSA-N

$$$$

  Mrv2220 08292413132D          

 26 27  0  0  0  0            999 V2000
    0.6078    6.0027    0.0000 C   0  0  0  0  0  0  0  0  0  0  0  0
    1.3222    5.5902    0.0000 O   0  0  0  0  0  0  0  0  0  0  0  0
    1.3222    4.7652    0.0000 C   0  0  0  0  0  0  0  0  0  0  0  0
    0.6078    4.3527    0.0000 O   0  0  0  0  0  0  0  0  0  0  0  0
    2.0367    4.3527    0.0000 C   0  0  0  0  0  0  0  0  0  0  0  0
    2.7512    4.7652    0.0000 C   0  0  0  0  0  0  0  0  0  0  0  0
    2.7512    5.5902    0.0000 C   0  0  0  0  0  0  0  0  0  0  0  0
    3.4656    6.0027    0.0000 F   0  0  0  0  0  0  0  0  0  0  0  0
    2.0367    6.0027    0.0000 F   0  0  0  0  0  0  0  0  0  0  0  0
    3.4656    4.3527    0.0000 N   0  0  0  0  0  0  0  0  0  0  0  0
    3.4656    3.5277    0.0000 C   0  0  0  0  0  0  0  0  0  0  0  0
    4.1801    3.1152    0.0000 C   0  0  0  0  0  0  0  0  0  0  0  0
    4.8946    2.7027    0.0000 F   0  0  0  0  0  0  0  0  0  0  0  0
    3.7676    2.4007    0.0000 F   0  0  0  0  0  0  0  0  0  0  0  0
    4.5926    3.8297    0.0000 F   0  0  0  0  0  0  0  0  0  0  0  0
    2.7512    3.1152    0.0000 C   0  0  0  0  0  0  0  0  0  0  0  0
    2.7512    2.2902    0.0000 C   0  0  0  0  0  0  0  0  0  0  0  0
    3.4186    1.8053    0.0000 N   0  0  0  0  0  0  0  0  0  0  0  0
    3.1637    1.0206    0.0000 C   0  0  0  0  0  0  0  0  0  0  0  0
    2.3387    1.0206    0.0000 C   0  0  0  0  0  0  0  0  0  0  0  0
    2.0837    1.8053    0.0000 S   0  0  0  0  0  0  0  0  0  0  0  0
    2.0367    3.5277    0.0000 C   0  0  0  0  0  0  0  0  0  0  0  0
    1.3222    3.1152    0.0000 C   0  0  0  0  0  0  0  0  0  0  0  0
    0.6078    3.5277    0.0000 C   0  0  0  0  0  0  0  0  0  0  0  0
   -0.1067    3.1152    0.0000 C   0  0  0  0  0  0  0  0  0  0  0  0
    0.1228    4.1951    0.0000 C   0  0  0  0  0  0  0  0  0  0  0  0
  1  2  1  0  0  0  0
  2  3  1  0  0  0  0
  3  4  2  0  0  0  0
  3  5  1  0  0  0  0
  5  6  4  0  0  0  0
  6  7  1  0  0  0  0
  7  8  1  0  0  0  0
  7  9  1  0  0  0  0
  6 10  4  0  0  0  0
 10 11  4  0  0  0  0
 11 12  1  0  0  0  0
 12 13  1  0  0  0  0
 12 14  1  0  0  0  0
 12 15  1  0  0  0  0
 11 16  4  0  0  0  0
 16 17  1  0  0  0  0
 17 18  2  0  0  0  0
 18 19  1  0  0  0  0
 19 20  1  0  0  0  0
 20 21  1  0  0  0  0
 17 21  1  0  0  0  0
 16 22  4  0  0  0  0
  5 22  4  0  0  0  0
 22 23  1  0  0  0  0
 23 24  1  0  0  0  0
 24 25  1  0  0  0  0
 24 26  1  0  0  0  0
M  END
> <activity>
26.2

> <InChiKey>
YIJZJEYQBAAWRJ-UHFFFAOYSA-N

$$$$

  Mrv2220 08292413132D          

 15 16  0  0  0  0            999 V2000
   -2.7512   -1.7116    0.0000 O   0  0  0  0  0  0  0  0  0  0  0  0
   -2.0367   -1.2991    0.0000 C   0  0  0  0  0  0  0  0  0  0  0  0
   -2.0367   -0.4741    0.0000 N   0  0  0  0  0  0  0  0  0  0  0  0
   -2.7512   -0.0616    0.0000 C   0  0  0  0  0  0  0  0  0  0  0  0
   -3.4656   -0.4741    0.0000 C   0  0  0  0  0  0  0  0  0  0  0  0
   -4.1801   -0.0616    0.0000 C   0  0  0  0  0  0  0  0  0  0  0  0
   -4.1801    0.7634    0.0000 C   0  0  0  0  0  0  0  0  0  0  0  0
   -3.4656    1.1759    0.0000 C   0  0  0  0  0  0  0  0  0  0  0  0
   -2.7512    0.7634    0.0000 C   0  0  0  0  0  0  0  0  0  0  0  0
   -1.3222   -1.7116    0.0000 N   0  0  0  0  0  0  0  0  0  0  0  0
   -1.3222   -2.5366    0.0000 C   0  0  0  0  0  0  0  0  0  0  0  0
   -0.6548   -3.0215    0.0000 C   0  0  0  0  0  0  0  0  0  0  0  0
   -0.9097   -3.8062    0.0000 N   0  0  0  0  0  0  0  0  0  0  0  0
   -1.7347   -3.8062    0.0000 N   0  0  0  0  0  0  0  0  0  0  0  0
   -1.9897   -3.0215    0.0000 S   0  0  0  0  0  0  0  0  0  0  0  0
  1  2  2  0  0  0  0
  2  3  1  0  0  0  0
  3  4  1  0  0  0  0
  4  5  4  0  0  0  0
  5  6  4  0  0  0  0
  6  7  4  0  0  0  0
  7  8  4  0  0  0  0
  8  9  4  0  0  0  0
  4  9  4  0  0  0  0
  2 10  1  0  0  0  0
 10 11  1  0  0  0  0
 11 12  4  0  0  0  0
 12 13  4  0  0  0  0
 13 14  4  0  0  0  0
 14 15  4  0  0  0  0
 11 15  4  0  0  0  0
M  END
> <activity>
46.3

> <InChiKey>
HFCYZXMHUIHAQI-UHFFFAOYSA-N

$$$$

  Mrv2220 08292413132D          

 16 16  0  0  0  0            999 V2000
    2.0329   -1.0461    0.0000 C   0  0  0  0  0  0  0  0  0  0  0  0
    2.8579   -1.0461    0.0000 C   0  0  0  0  0  0  0  0  0  0  0  0
    3.2704   -1.7605    0.0000 N   0  0  0  0  0  0  0  0  0  0  0  0
    2.8579   -2.4750    0.0000 C   0  0  0  0  0  0  0  0  0  0  0  0
    2.0329   -2.4750    0.0000 C   0  0  0  0  0  0  0  0  0  0  0  0
    4.0954   -1.7605    0.0000 C   0  0  0  0  0  0  0  0  0  0  0  0
    4.5079   -1.0461    0.0000 O   0  0  0  0  0  0  0  0  0  0  0  0
    4.5079   -2.4750    0.0000 S   0  0  0  0  0  0  0  0  0  0  0  0
    5.3329   -2.4750    0.0000 C   0  0  0  0  0  0  0  0  0  0  0  0
    5.7454   -3.1895    0.0000 C   0  0  0  0  0  0  0  0  0  0  0  0
    6.5704   -3.1895    0.0000 C   0  0  0  0  0  0  0  0  0  0  0  0
    6.9829   -3.9039    0.0000 C   0  0  0  0  0  0  0  0  0  0  0  0
    6.5704   -4.6184    0.0000 C   0  0  0  0  0  0  0  0  0  0  0  0
    6.9829   -5.3329    0.0000 Cl  0  0  0  0  0  0  0  0  0  0  0  0
    5.7454   -4.6184    0.0000 C   0  0  0  0  0  0  0  0  0  0  0  0
    5.3329   -3.9039    0.0000 C   0  0  0  0  0  0  0  0  0  0  0  0
  1  2  1  0  0  0  0
  2  3  1  0  0  0  0
  3  4  1  0  0  0  0
  4  5  1  0  0  0  0
  3  6  1  0  0  0  0
  6  7  2  0  0  0  0
  6  8  1  0  0  0  0
  8  9  1  0  0  0  0
  9 10  1  0  0  0  0
 10 11  4  0  0  0  0
 11 12  4  0  0  0  0
 12 13  4  0  0  0  0
 13 14  1  0  0  0  0
 13 15  4  0  0  0  0
 15 16  4  0  0  0  0
 10 16  4  0  0  0  0
M  END
> <activity>
40.6

> <InChiKey>
QHTQREMOGMZHJV-UHFFFAOYSA-N

$$$$

  Mrv2220 08292413132D          

  6  5  0  0  0  0            999 V2000
    2.4750   -1.4289    0.0000 N   0  0  0  0  0  0  0  0  0  0  0  0
    2.0625   -0.7145    0.0000 N   0  0  0  0  0  0  0  0  0  0  0  0
    1.2375   -0.7145    0.0000 C   0  0  0  0  0  0  0  0  0  0  0  0
    0.8250   -1.4289    0.0000 S   0  0  0  0  0  0  0  0  0  0  0  0
    0.8250    0.0000    0.0000 N   0  0  0  0  0  0  0  0  0  0  0  0
    0.0000    0.0000    0.0000 N   0  0  0  0  0  0  0  0  0  0  0  0
  1  2  1  0  0  0  0
  2  3  1  0  0  0  0
  3  4  2  0  0  0  0
  3  5  1  0  0  0  0
  5  6  1  0  0  0  0
M  END
> <activity>
34.1

> <InChiKey>
LJTFFORYSFGNCT-UHFFFAOYSA-N

$$$$

  Mrv2220 08292413132D          

 21 20  0  0  0  0            999 V2000
    2.2836    4.6184    0.0000 C   0  0  0  0  0  0  0  0  0  0  0  0
    2.2836    3.7934    0.0000 S   0  0  0  0  0  0  0  0  0  0  0  0
    2.9980    3.3809    0.0000 C   0  0  0  0  0  0  0  0  0  0  0  0
    3.7125    3.7934    0.0000 C   0  0  0  0  0  0  0  0  0  0  0  0
    2.9980    2.5559    0.0000 N   0  0  0  0  0  0  0  0  0  0  0  0
    3.7125    2.1434    0.0000 O   0  0  0  0  0  0  0  0  0  0  0  0
    4.4270    2.5559    0.0000 C   0  0  0  0  0  0  0  0  0  0  0  0
    4.4270    3.3809    0.0000 O   0  0  0  0  0  0  0  0  0  0  0  0
    5.1414    2.1434    0.0000 N   0  0  0  0  0  0  0  0  0  0  0  0
    5.1414    1.3184    0.0000 C   0  0  0  0  0  0  0  0  0  0  0  0
    5.8559    2.5559    0.0000 S   0  0  0  0  0  0  0  0  0  0  0  0
    6.5704    2.1434    0.0000 N   0  0  0  0  0  0  0  0  0  0  0  0
    6.5704    1.3184    0.0000 C   0  0  0  0  0  0  0  0  0  0  0  0
    7.2849    2.5559    0.0000 C   0  0  0  0  0  0  0  0  0  0  0  0
    7.2849    3.3809    0.0000 O   0  0  0  0  0  0  0  0  0  0  0  0
    7.9993    2.1434    0.0000 O   0  0  0  0  0  0  0  0  0  0  0  0
    8.7138    2.5559    0.0000 N   0  0  0  0  0  0  0  0  0  0  0  0
    9.4283    2.1434    0.0000 C   0  0  0  0  0  0  0  0  0  0  0  0
    9.4283    1.3184    0.0000 C   0  0  0  0  0  0  0  0  0  0  0  0
   10.1427    2.5559    0.0000 S   0  0  0  0  0  0  0  0  0  0  0  0
   10.8572    2.1434    0.0000 C   0  0  0  0  0  0  0  0  0  0  0  0
  1  2  1  0  0  0  0
  2  3  1  0  0  0  0
  3  4  1  0  0  0  0
  3  5  2  0  0  0  0
  5  6  1  4  0  0  0
  6  7  1  0  0  0  0
  7  8  2  0  0  0  0
  7  9  1  0  0  0  0
  9 10  1  0  0  0  0
  9 11  1  0  0  0  0
 11 12  1  0  0  0  0
 12 13  1  0  0  0  0
 12 14  1  0  0  0  0
 14 15  2  0  0  0  0
 14 16  1  0  0  0  0
 17 16  1  4  0  0  0
 17 18  2  0  0  0  0
 18 19  1  0  0  0  0
 18 20  1  0  0  0  0
 20 21  1  0  0  0  0
M  END
> <activity>
67.1

> <InChiKey>
XDOTVMNBCQVZKG-UHFFFAOYSA-N

$$$$

  Mrv2220 08292413132D          

 24 24  0  0  0  0            999 V2000
   -3.5724    1.2375    0.0000 C   0  0  0  0  0  0  0  0  0  0  0  0
   -2.8579    1.6500    0.0000 C   0  0  0  0  0  0  0  0  0  0  0  0
   -2.1434    1.2375    0.0000 O   0  0  0  0  0  0  0  0  0  0  0  0
   -1.4289    1.6500    0.0000 C   0  0  0  0  0  0  0  0  0  0  0  0
   -1.4289    2.4750    0.0000 O   0  0  0  0  0  0  0  0  0  0  0  0
   -0.7145    1.2375    0.0000 N   0  0  0  0  0  0  0  0  0  0  0  0
    0.0000    1.6500    0.0000 C   0  0  0  0  0  0  0  0  0  0  0  0
    0.0000    2.4750    0.0000 S   0  0  0  0  0  0  0  0  0  0  0  0
    0.7145    1.2375    0.0000 N   0  0  0  0  0  0  0  0  0  0  0  0
    1.4289    1.6500    0.0000 C   0  0  0  0  0  0  0  0  0  0  0  0
    1.4289    2.4750    0.0000 C   0  0  0  0  0  0  0  0  0  0  0  0
    2.1434    2.8875    0.0000 C   0  0  0  0  0  0  0  0  0  0  0  0
    2.8579    2.4750    0.0000 C   0  0  0  0  0  0  0  0  0  0  0  0
    2.8579    1.6500    0.0000 C   0  0  0  0  0  0  0  0  0  0  0  0
    2.1434    1.2375    0.0000 C   0  0  0  0  0  0  0  0  0  0  0  0
    2.1434    0.4125    0.0000 N   0  0  0  0  0  0  0  0  0  0  0  0
    2.8579    0.0000    0.0000 C   0  0  0  0  0  0  0  0  0  0  0  0
    2.8579   -0.8250    0.0000 S   0  0  0  0  0  0  0  0  0  0  0  0
    3.5724    0.4125    0.0000 N   0  0  0  0  0  0  0  0  0  0  0  0
    4.2868    0.0000    0.0000 C   0  0  0  0  0  0  0  0  0  0  0  0
    4.2868   -0.8250    0.0000 O   0  0  0  0  0  0  0  0  0  0  0  0
    5.0013    0.4125    0.0000 O   0  0  0  0  0  0  0  0  0  0  0  0
    5.7158    0.0000    0.0000 C   0  0  0  0  0  0  0  0  0  0  0  0
    6.4302    0.4125    0.0000 C   0  0  0  0  0  0  0  0  0  0  0  0
  1  2  1  0  0  0  0
  2  3  1  0  0  0  0
  3  4  1  0  0  0  0
  4  5  2  0  0  0  0
  4  6  1  0  0  0  0
  6  7  1  0  0  0  0
  7  8  2  0  0  0  0
  7  9  1  0  0  0  0
  9 10  1  0  0  0  0
 10 11  4  0  0  0  0
 11 12  4  0  0  0  0
 12 13  4  0  0  0  0
 13 14  4  0  0  0  0
 14 15  4  0  0  0  0
 10 15  4  0  0  0  0
 15 16  1  0  0  0  0
 16 17  1  0  0  0  0
 17 18  2  0  0  0  0
 17 19  1  0  0  0  0
 19 20  1  0  0  0  0
 20 21  2  0  0  0  0
 20 22  1  0  0  0  0
 22 23  1  0  0  0  0
 23 24  1  0  0  0  0
M  END
> <activity>
36.9

> <InChiKey>
YFNCATAIYKQPOO-UHFFFAOYSA-N

$$$$

  Mrv2220 08292413132D          

 22 22  0  0  0  0            999 V2000
   -1.4289   -4.1250    0.0000 C   0  0  0  0  0  0  0  0  0  0  0  0
   -0.7145   -3.7125    0.0000 O   0  0  0  0  0  0  0  0  0  0  0  0
   -0.7145   -2.8875    0.0000 C   0  0  0  0  0  0  0  0  0  0  0  0
   -1.4289   -2.4750    0.0000 O   0  0  0  0  0  0  0  0  0  0  0  0
    0.0000   -2.4750    0.0000 N   0  0  0  0  0  0  0  0  0  0  0  0
    0.0000   -1.6500    0.0000 C   0  0  0  0  0  0  0  0  0  0  0  0
   -0.7145   -1.2375    0.0000 S   0  0  0  0  0  0  0  0  0  0  0  0
    0.7145   -1.2375    0.0000 N   0  0  0  0  0  0  0  0  0  0  0  0
    0.7145   -0.4125    0.0000 C   0  0  0  0  0  0  0  0  0  0  0  0
    0.0000    0.0000    0.0000 C   0  0  0  0  0  0  0  0  0  0  0  0
    0.0000    0.8250    0.0000 C   0  0  0  0  0  0  0  0  0  0  0  0
    0.7145    1.2375    0.0000 C   0  0  0  0  0  0  0  0  0  0  0  0
    1.4289    0.8250    0.0000 C   0  0  0  0  0  0  0  0  0  0  0  0
    1.4289    0.0000    0.0000 C   0  0  0  0  0  0  0  0  0  0  0  0
    2.1434   -0.4125    0.0000 N   0  0  0  0  0  0  0  0  0  0  0  0
    2.8579    0.0000    0.0000 C   0  0  0  0  0  0  0  0  0  0  0  0
    2.8579    0.8250    0.0000 S   0  0  0  0  0  0  0  0  0  0  0  0
    3.5724   -0.4125    0.0000 N   0  0  0  0  0  0  0  0  0  0  0  0
    4.2868    0.0000    0.0000 C   0  0  0  0  0  0  0  0  0  0  0  0
    4.2868    0.8250    0.0000 O   0  0  0  0  0  0  0  0  0  0  0  0
    5.0013   -0.4125    0.0000 O   0  0  0  0  0  0  0  0  0  0  0  0
    5.7158    0.0000    0.0000 C   0  0  0  0  0  0  0  0  0  0  0  0
  1  2  1  0  0  0  0
  2  3  1  0  0  0  0
  3  4  2  0  0  0  0
  3  5  1  0  0  0  0
  5  6  1  0  0  0  0
  6  7  2  0  0  0  0
  6  8  1  0  0  0  0
  8  9  1  0  0  0  0
  9 10  4  0  0  0  0
 10 11  4  0  0  0  0
 11 12  4  0  0  0  0
 12 13  4  0  0  0  0
 13 14  4  0  0  0  0
  9 14  4  0  0  0  0
 14 15  1  0  0  0  0
 15 16  1  0  0  0  0
 16 17  2  0  0  0  0
 16 18  1  0  0  0  0
 18 19  1  0  0  0  0
 19 20  2  0  0  0  0
 19 21  1  0  0  0  0
 21 22  1  0  0  0  0
M  END
> <activity>
48.3

> <InChiKey>
QGHREAKMXXNCOA-UHFFFAOYSA-N

$$$$

  Mrv2220 08292413132D          

 15 15  0  0  0  0            999 V2000
    0.7145   -1.2375    0.0000 C   0  0  0  0  0  0  0  0  0  0  0  0
    0.7145   -0.4125    0.0000 C   0  0  0  0  0  0  0  0  0  0  0  0
    0.0000    0.0000    0.0000 C   0  0  0  0  0  0  0  0  0  0  0  0
    0.0000    0.8250    0.0000 C   0  0  0  0  0  0  0  0  0  0  0  0
   -0.7145    1.2375    0.0000 Cl  0  0  0  0  0  0  0  0  0  0  0  0
    0.7145    1.2375    0.0000 C   0  0  0  0  0  0  0  0  0  0  0  0
    1.4289    0.8250    0.0000 C   0  0  0  0  0  0  0  0  0  0  0  0
    1.4289    0.0000    0.0000 C   0  0  0  0  0  0  0  0  0  0  0  0
    2.1434   -0.4125    0.0000 O   0  0  0  0  0  0  0  0  0  0  0  0
    2.8579    0.0000    0.0000 C   0  0  0  0  0  0  0  0  0  0  0  0
    3.5724   -0.4125    0.0000 C   0  0  0  0  0  0  0  0  0  0  0  0
    4.2868    0.0000    0.0000 C   0  0  0  0  0  0  0  0  0  0  0  0
    5.0013   -0.4125    0.0000 C   0  0  0  0  0  0  0  0  0  0  0  0
    5.7158    0.0000    0.0000 O   0  0  0  0  0  0  0  0  0  0  0  0
    5.0013   -1.2375    0.0000 O   0  0  0  0  0  0  0  0  0  0  0  0
  1  2  1  0  0  0  0
  2  3  4  0  0  0  0
  3  4  4  0  0  0  0
  4  5  1  0  0  0  0
  4  6  4  0  0  0  0
  6  7  4  0  0  0  0
  7  8  4  0  0  0  0
  2  8  4  0  0  0  0
  8  9  1  0  0  0  0
  9 10  1  0  0  0  0
 10 11  1  0  0  0  0
 11 12  1  0  0  0  0
 12 13  1  0  0  0  0
 13 14  2  0  0  0  0
 13 15  1  0  0  0  0
M  END
> <activity>
99.3

> <InChiKey>
LLWADFLAOKUBDR-UHFFFAOYSA-N

$$$$

  Mrv2220 08292413132D          

 11 11  0  0  0  0            999 V2000
    0.7145    2.0625    0.0000 C   0  0  0  0  0  0  0  0  0  0  0  0
    0.7145    1.2375    0.0000 C   0  0  0  0  0  0  0  0  0  0  0  0
    1.4289    0.8250    0.0000 C   0  0  0  0  0  0  0  0  0  0  0  0
    1.4289   -0.0000    0.0000 C   0  0  0  0  0  0  0  0  0  0  0  0
    0.7145   -0.4125    0.0000 C   0  0  0  0  0  0  0  0  0  0  0  0
    0.7145   -1.2375    0.0000 C   0  0  0  0  0  0  0  0  0  0  0  0
    1.4289   -1.6500    0.0000 C   0  0  0  0  0  0  0  0  0  0  0  0
   -0.0000   -1.6500    0.0000 C   0  0  0  0  0  0  0  0  0  0  0  0
    0.0000    0.0000    0.0000 C   0  0  0  0  0  0  0  0  0  0  0  0
   -0.7145   -0.4125    0.0000 O   0  0  0  0  0  0  0  0  0  0  0  0
    0.0000    0.8250    0.0000 C   0  0  0  0  0  0  0  0  0  0  0  0
  1  2  1  0  0  0  0
  2  3  4  0  0  0  0
  3  4  4  0  0  0  0
  4  5  4  0  0  0  0
  5  6  1  0  0  0  0
  6  7  1  0  0  0  0
  6  8  1  0  0  0  0
  5  9  4  0  0  0  0
  9 10  1  0  0  0  0
  9 11  4  0  0  0  0
  2 11  4  0  0  0  0
M  END
> <activity>
59.3

> <InChiKey>
MGSRCZKZVOBKFT-UHFFFAOYSA-N

$$$$

  Mrv2220 08292413132D          

 21 22  0  0  0  0            999 V2000
    1.4289    0.8250    0.0000 O   0  0  0  0  0  0  0  0  0  0  0  0
    1.4289    0.0000    0.0000 C   0  0  0  0  0  0  0  0  0  0  0  0
    0.7145   -0.4125    0.0000 O   0  0  0  0  0  0  0  0  0  0  0  0
    2.1434   -0.4125    0.0000 C   0  0  0  0  0  0  0  0  0  0  0  0
    2.1434   -1.2375    0.0000 C   0  0  0  0  0  0  0  0  0  0  0  0
    2.8579   -1.6500    0.0000 C   0  0  0  0  0  0  0  0  0  0  0  0
    2.8579   -2.4750    0.0000 C   0  0  0  0  0  0  0  0  0  0  0  0
    3.5724   -2.8875    0.0000 I   0  0  0  0  0  0  0  0  0  0  0  0
    2.1434   -2.8875    0.0000 C   0  0  0  0  0  0  0  0  0  0  0  0
    2.1434   -3.7125    0.0000 O   0  0  0  0  0  0  0  0  0  0  0  0
    1.4289   -4.1250    0.0000 C   0  0  0  0  0  0  0  0  0  0  0  0
    1.4289   -4.9500    0.0000 C   0  0  0  0  0  0  0  0  0  0  0  0
    0.7145   -5.3625    0.0000 C   0  0  0  0  0  0  0  0  0  0  0  0
   -0.0000   -4.9500    0.0000 C   0  0  0  0  0  0  0  0  0  0  0  0
   -0.7145   -5.3625    0.0000 O   0  0  0  0  0  0  0  0  0  0  0  0
    0.0000   -4.1250    0.0000 C   0  0  0  0  0  0  0  0  0  0  0  0
   -0.7145   -3.7125    0.0000 I   0  0  0  0  0  0  0  0  0  0  0  0
    0.7145   -3.7125    0.0000 C   0  0  0  0  0  0  0  0  0  0  0  0
    1.4289   -2.4750    0.0000 C   0  0  0  0  0  0  0  0  0  0  0  0
    0.7145   -2.8875    0.0000 I   0  0  0  0  0  0  0  0  0  0  0  0
    1.4289   -1.6500    0.0000 C   0  0  0  0  0  0  0  0  0  0  0  0
  1  2  2  0  0  0  0
  2  3  1  0  0  0  0
  2  4  1  0  0  0  0
  4  5  1  0  0  0  0
  5  6  4  0  0  0  0
  6  7  4  0  0  0  0
  7  8  1  0  0  0  0
  7  9  4  0  0  0  0
  9 10  1  0  0  0  0
 10 11  1  0  0  0  0
 11 12  4  0  0  0  0
 12 13  4  0  0  0  0
 13 14  4  0  0  0  0
 14 15  1  0  0  0  0
 14 16  4  0  0  0  0
 16 17  1  0  0  0  0
 16 18  4  0  0  0  0
 11 18  4  0  0  0  0
  9 19  4  0  0  0  0
 19 20  1  0  0  0  0
 19 21  4  0  0  0  0
  5 21  4  0  0  0  0
M  END
> <activity>
105.0

> <InChiKey>
UOWZUVNAGUAEQC-UHFFFAOYSA-N

$$$$

  Mrv2220 08292413132D          

 21 22  0  0  0  0            999 V2000
    2.6969   -2.7176    0.0000 C   0  0  0  0  0  0  0  0  0  0  0  0
    2.6969   -3.5426    0.0000 C   0  0  0  0  0  0  0  0  0  0  0  0
    3.4114   -3.9551    0.0000 C   0  0  0  0  0  0  0  0  0  0  0  0
    3.4114   -4.7801    0.0000 C   0  0  0  0  0  0  0  0  0  0  0  0
    2.6969   -5.1926    0.0000 C   0  0  0  0  0  0  0  0  0  0  0  0
    2.6969   -6.0176    0.0000 S   0  0  0  0  0  0  0  0  0  0  0  0
    1.8719   -6.0176    0.0000 O   0  0  0  0  0  0  0  0  0  0  0  0
    3.5219   -6.0176    0.0000 O   0  0  0  0  0  0  0  0  0  0  0  0
    2.6969   -6.8426    0.0000 N   0  0  0  0  0  0  0  0  0  0  0  0
    1.9825   -7.2551    0.0000 C   0  0  0  0  0  0  0  0  0  0  0  0
    1.2680   -6.8426    0.0000 O   0  0  0  0  0  0  0  0  0  0  0  0
    1.9825   -8.0801    0.0000 N   0  0  0  0  0  0  0  0  0  0  0  0
    1.2680   -8.4926    0.0000 N   0  0  0  0  0  0  0  0  0  0  0  0
    1.3296   -9.3153    0.0000 C   0  0  0  0  0  0  0  0  0  0  0  0
    0.7249   -9.8764    0.0000 C   0  0  0  0  0  0  0  0  0  0  0  0
   -0.0909   -9.7535    0.0000 C   0  0  0  0  0  0  0  0  0  0  0  0
   -0.5034   -9.0390    0.0000 C   0  0  0  0  0  0  0  0  0  0  0  0
   -0.2020   -8.2710    0.0000 C   0  0  0  0  0  0  0  0  0  0  0  0
    0.5863   -8.0278    0.0000 C   0  0  0  0  0  0  0  0  0  0  0  0
    1.9825   -4.7801    0.0000 C   0  0  0  0  0  0  0  0  0  0  0  0
    1.9825   -3.9551    0.0000 C   0  0  0  0  0  0  0  0  0  0  0  0
  1  2  1  0  0  0  0
  2  3  4  0  0  0  0
  3  4  4  0  0  0  0
  4  5  4  0  0  0  0
  5  6  1  0  0  0  0
  6  7  2  0  0  0  0
  6  8  2  0  0  0  0
  6  9  1  0  0  0  0
  9 10  1  0  0  0  0
 10 11  2  0  0  0  0
 10 12  1  0  0  0  0
 12 13  1  0  0  0  0
 13 14  1  0  0  0  0
 14 15  1  0  0  0  0
 15 16  1  0  0  0  0
 16 17  1  0  0  0  0
 17 18  1  0  0  0  0
 18 19  1  0  0  0  0
 13 19  1  0  0  0  0
  5 20  4  0  0  0  0
 20 21  4  0  0  0  0
  2 21  4  0  0  0  0
M  END
> <activity>
12.8

> <InChiKey>
OUDSBRTVNLOZBN-UHFFFAOYSA-N

$$$$

  Mrv2220 08292413132D          

  9 10  0  0  0  0            999 V2000
    3.3523    1.9354    0.0000 C   0  0  0  0  0  0  0  0  0  0  0  0
    3.3523    1.1104    0.0000 C   0  0  0  0  0  0  0  0  0  0  0  0
    2.6378    0.6979    0.0000 C   0  0  0  0  0  0  0  0  0  0  0  0
    1.9233    1.1104    0.0000 C   0  0  0  0  0  0  0  0  0  0  0  0
    1.1387    0.8555    0.0000 N   0  0  0  0  0  0  0  0  0  0  0  0
    0.6538    1.5229    0.0000 N   0  0  0  0  0  0  0  0  0  0  0  0
    1.1387    2.1904    0.0000 N   0  0  0  0  0  0  0  0  0  0  0  0
    1.9233    1.9354    0.0000 C   0  0  0  0  0  0  0  0  0  0  0  0
    2.6378    2.3479    0.0000 C   0  0  0  0  0  0  0  0  0  0  0  0
  1  2  4  0  0  0  0
  2  3  4  0  0  0  0
  3  4  4  0  0  0  0
  4  5  4  0  0  0  0
  5  6  4  0  0  0  0
  6  7  4  0  0  0  0
  7  8  4  0  0  0  0
  4  8  4  0  0  0  0
  8  9  4  0  0  0  0
  1  9  4  0  0  0  0
M  STY  1   1 DAT
M  SAL   1  1   5
M  SDT   1 MRV_IMPLICIT_H                                        
M  SDD   1     0.5304   -0.4125    DR    ALL  0       0  
M  SED   1 IMPL_H1
M  END
> <activity>
44.2

> <InChiKey>
QRUDEWIWKLJBPS-UHFFFAOYSA-N

$$$$

  Mrv2220 08292413132D          

 19 20  0  0  0  0            999 V2000
   -2.1434   -1.2375    0.0000 C   0  0  0  0  0  0  0  0  0  0  0  0
   -1.4289   -1.6500    0.0000 C   0  0  0  0  0  0  0  0  0  0  0  0
   -1.4289   -2.4750    0.0000 O   0  0  0  0  0  0  0  0  0  0  0  0
   -0.7145   -1.2375    0.0000 C   0  0  0  0  0  0  0  0  0  0  0  0
    0.0000   -1.6500    0.0000 C   0  0  0  0  0  0  0  0  0  0  0  0
    0.7145   -1.2375    0.0000 C   0  0  0  0  0  0  0  0  0  0  0  0
    0.7145   -0.4125    0.0000 C   0  0  0  0  0  0  0  0  0  0  0  0
    0.0000   -0.0000    0.0000 C   0  0  0  0  0  0  0  0  0  0  0  0
   -0.7145   -0.4125    0.0000 C   0  0  0  0  0  0  0  0  0  0  0  0
   -1.4289   -0.0000    0.0000 C   0  0  0  0  0  0  0  0  0  0  0  0
    1.4289   -0.0000    0.0000 C   0  0  0  0  0  0  0  0  0  0  0  0
    0.8986    0.6320    0.0000 C   0  0  0  0  0  0  0  0  0  0  0  0
    1.9592    0.6320    0.0000 C   0  0  0  0  0  0  0  0  0  0  0  0
    2.1434   -0.4125    0.0000 C   0  0  0  0  0  0  0  0  0  0  0  0
    2.8579   -0.0000    0.0000 C   0  0  0  0  0  0  0  0  0  0  0  0
    2.1434   -1.2375    0.0000 C   0  0  0  0  0  0  0  0  0  0  0  0
    1.4289   -1.6500    0.0000 C   0  0  0  0  0  0  0  0  0  0  0  0
    1.8163   -2.3784    0.0000 C   0  0  0  0  0  0  0  0  0  0  0  0
    1.0416   -2.3784    0.0000 C   0  0  0  0  0  0  0  0  0  0  0  0
  1  2  1  0  0  0  0
  2  3  2  0  0  0  0
  2  4  1  0  0  0  0
  4  5  4  0  0  0  0
  5  6  4  0  0  0  0
  6  7  4  0  0  0  0
  7  8  4  0  0  0  0
  8  9  4  0  0  0  0
  4  9  4  0  0  0  0
  9 10  1  0  0  0  0
  7 11  1  0  0  0  0
 11 12  1  0  0  0  0
 11 13  1  0  0  0  0
 11 14  1  0  0  0  0
 14 15  1  0  0  0  0
 14 16  1  0  0  0  0
 16 17  1  0  0  0  0
  6 17  1  0  0  0  0
 17 18  1  0  0  0  0
 17 19  1  0  0  0  0
M  END
> <activity>
29.1

> <InChiKey>
DNRJTBAOUJJKDY-UHFFFAOYSA-N

$$$$

  Mrv2220 08292413132D          

 25 27  0  0  0  0            999 V2000
   -2.0367    3.5277    0.0000 C   0  0  0  0  0  0  0  0  0  0  0  0
   -2.7512    3.1152    0.0000 C   0  0  0  0  0  0  0  0  0  0  0  0
   -2.7512    2.2902    0.0000 C   0  0  0  0  0  0  0  0  0  0  0  0
   -2.0367    1.8777    0.0000 C   0  0  0  0  0  0  0  0  0  0  0  0
   -1.3222    2.2902    0.0000 O   0  0  0  0  0  0  0  0  0  0  0  0
   -2.0367    1.0527    0.0000 C   0  0  0  0  0  0  0  0  0  0  0  0
   -1.3693    0.5678    0.0000 C   0  0  0  0  0  0  0  0  0  0  0  0
   -1.6242   -0.2169    0.0000 N   0  0  0  0  0  0  0  0  0  0  0  0
   -2.4492   -0.2169    0.0000 N   0  0  0  0  0  0  0  0  0  0  0  0
   -2.9341   -0.8843    0.0000 C   0  0  0  0  0  0  0  0  0  0  0  0
   -2.7041    0.5678    0.0000 C   0  0  0  0  0  0  0  0  0  0  0  0
   -3.4888    0.8227    0.0000 O   0  0  0  0  0  0  0  0  0  0  0  0
   -3.4656    1.8777    0.0000 C   0  0  0  0  0  0  0  0  0  0  0  0
   -4.1801    2.2902    0.0000 C   0  0  0  0  0  0  0  0  0  0  0  0
   -4.1801    3.1152    0.0000 C   0  0  0  0  0  0  0  0  0  0  0  0
   -4.8946    3.5277    0.0000 S   0  0  0  0  0  0  0  0  0  0  0  0
   -5.6091    3.9402    0.0000 C   0  0  0  0  0  0  0  0  0  0  0  0
   -4.4821    4.2422    0.0000 O   0  0  0  0  0  0  0  0  0  0  0  0
   -5.3071    2.8132    0.0000 O   0  0  0  0  0  0  0  0  0  0  0  0
   -3.4656    3.5277    0.0000 C   0  0  0  0  0  0  0  0  0  0  0  0
   -3.4656    4.3527    0.0000 C   0  0  0  0  0  0  0  0  0  0  0  0
   -4.1331    4.8376    0.0000 N   0  0  0  0  0  0  0  0  0  0  0  0
   -3.8781    5.6222    0.0000 O   0  0  0  0  0  0  0  0  0  0  0  0
   -3.0531    5.6222    0.0000 C   0  0  0  0  0  0  0  0  0  0  0  0
   -2.7982    4.8376    0.0000 C   0  0  0  0  0  0  0  0  0  0  0  0
  1  2  1  0  0  0  0
  2  3  4  0  0  0  0
  3  4  1  0  0  0  0
  4  5  2  0  0  0  0
  4  6  1  0  0  0  0
  6  7  4  0  0  0  0
  7  8  4  0  0  0  0
  8  9  4  0  0  0  0
  9 10  1  0  0  0  0
  9 11  4  0  0  0  0
  6 11  4  0  0  0  0
 11 12  1  0  0  0  0
  3 13  4  0  0  0  0
 13 14  4  0  0  0  0
 14 15  4  0  0  0  0
 15 16  1  0  0  0  0
 16 17  1  0  0  0  0
 16 18  2  0  0  0  0
 16 19  2  0  0  0  0
 15 20  4  0  0  0  0
  2 20  4  0  0  0  0
 20 21  1  0  0  0  0
 21 22  2  0  0  0  0
 22 23  1  0  0  0  0
 23 24  1  0  0  0  0
 24 25  1  0  0  0  0
 21 25  1  0  0  0  0
M  END
> <activity>
7.5

> <InChiKey>
IYMLUHWAJFXAQP-UHFFFAOYSA-N

$$$$

  Mrv2220 08292413132D          

 33 37  0  0  0  0            999 V2000
    2.1434   -3.7125    0.0000 N   0  0  0  0  0  0  0  0  0  0  0  0
    2.1434   -2.8875    0.0000 C   0  0  0  0  0  0  0  0  0  0  0  0
    2.8579   -2.4750    0.0000 O   0  0  0  0  0  0  0  0  0  0  0  0
    1.4289   -2.4750    0.0000 C   0  0  0  0  0  0  0  0  0  0  0  0
    1.4289   -1.6500    0.0000 N   0  0  0  0  0  0  0  0  0  0  0  0
    0.7145   -1.2375    0.0000 C   0  0  0  0  0  0  0  0  0  0  0  0
    0.0000   -1.6500    0.0000 O   0  0  0  0  0  0  0  0  0  0  0  0
    0.7145   -0.4125    0.0000 C   0  0  0  0  0  0  0  0  0  0  0  0
    1.4289    0.0000    0.0000 C   0  0  0  0  0  0  0  0  0  0  0  0
    1.4289    0.8250    0.0000 C   0  0  0  0  0  0  0  0  0  0  0  0
    0.7145    1.2375    0.0000 C   0  0  0  0  0  0  0  0  0  0  0  0
    0.7145    2.0625    0.0000 N   0  0  0  0  0  0  0  0  0  0  0  0
    0.0000    2.4750    0.0000 C   0  0  0  0  0  0  0  0  0  0  0  0
    0.0000    3.3000    0.0000 C   0  0  0  0  0  0  0  0  0  0  0  0
    0.7145    3.7125    0.0000 N   0  0  0  0  0  0  0  0  0  0  0  0
    0.7145    4.5375    0.0000 C   0  0  0  0  0  0  0  0  0  0  0  0
    0.0000    4.9500    0.0000 N   0  0  0  0  0  0  0  0  0  0  0  0
    0.0000    5.7750    0.0000 C   0  0  0  0  0  0  0  0  0  0  0  0
    0.7145    6.1875    0.0000 C   0  0  0  0  0  0  0  0  0  0  0  0
    1.4289    5.7750    0.0000 C   0  0  0  0  0  0  0  0  0  0  0  0
    2.2136    6.0299    0.0000 S   0  0  0  0  0  0  0  0  0  0  0  0
    2.6985    5.3625    0.0000 C   0  0  0  0  0  0  0  0  0  0  0  0
    2.2136    4.6951    0.0000 C   0  0  0  0  0  0  0  0  0  0  0  0
    1.4289    4.9500    0.0000 C   0  0  0  0  0  0  0  0  0  0  0  0
    1.4289    3.3000    0.0000 C   0  0  0  0  0  0  0  0  0  0  0  0
    1.4289    2.4750    0.0000 C   0  0  0  0  0  0  0  0  0  0  0  0
    2.1434   -0.4125    0.0000 C   0  0  0  0  0  0  0  0  0  0  0  0
    2.8579    0.0000    0.0000 C   0  0  0  0  0  0  0  0  0  0  0  0
    3.5724   -0.4125    0.0000 C   0  0  0  0  0  0  0  0  0  0  0  0
    3.5724   -1.2375    0.0000 C   0  0  0  0  0  0  0  0  0  0  0  0
    4.2868   -1.6500    0.0000 F   0  0  0  0  0  0  0  0  0  0  0  0
    2.8579   -1.6500    0.0000 C   0  0  0  0  0  0  0  0  0  0  0  0
    2.1434   -1.2375    0.0000 C   0  0  0  0  0  0  0  0  0  0  0  0
  1  2  1  0  0  0  0
  2  3  2  0  0  0  0
  2  4  1  0  0  0  0
  4  5  1  0  0  0  0
  5  6  4  0  0  0  0
  6  7  2  0  0  0  0
  6  8  4  0  0  0  0
  8  9  4  0  0  0  0
  9 10  1  0  0  0  0
 10 11  1  0  0  0  0
 11 12  1  0  0  0  0
 12 13  1  0  0  0  0
 13 14  1  0  0  0  0
 14 15  1  0  0  0  0
 15 16  1  0  0  0  0
 16 17  4  0  0  0  0
 17 18  4  0  0  0  0
 18 19  4  0  0  0  0
 19 20  4  0  0  0  0
 20 21  4  0  0  0  0
 21 22  4  0  0  0  0
 22 23  4  0  0  0  0
 23 24  4  0  0  0  0
 16 24  4  0  0  0  0
 20 24  4  0  0  0  0
 15 25  1  0  0  0  0
 25 26  1  0  0  0  0
 12 26  1  0  0  0  0
  9 27  4  0  0  0  0
 27 28  4  0  0  0  0
 28 29  4  0  0  0  0
 29 30  4  0  0  0  0
 30 31  1  0  0  0  0
 30 32  4  0  0  0  0
 32 33  4  0  0  0  0
 27 33  4  0  0  0  0
  5 33  4  0  0  0  0
M  END
> <activity>
-4.2

> <InChiKey>
JDLYOFUDIKMYBL-UHFFFAOYSA-N

$$$$

  Mrv2220 08292413132D          

 39 39  0  0  0  0            999 V2000
    4.2868   -6.6000    0.0000 C   0  0  0  0  0  0  0  0  0  0  0  0
    3.5724   -6.1875    0.0000 C   0  0  0  0  0  0  0  0  0  0  0  0
    3.5724   -5.3625    0.0000 C   0  0  0  0  0  0  0  0  0  0  0  0
    2.8579   -4.9500    0.0000 C   0  0  0  0  0  0  0  0  0  0  0  0
    2.8579   -4.1250    0.0000 C   0  0  0  0  0  0  0  0  0  0  0  0
    2.1434   -3.7125    0.0000 C   0  0  0  0  0  0  0  0  0  0  0  0
    2.1434   -2.8875    0.0000 C   0  0  0  0  0  0  0  0  0  0  0  0
    1.4289   -2.4750    0.0000 C   0  0  0  0  0  0  0  0  0  0  0  0
    1.4289   -1.6500    0.0000 O   0  0  0  0  0  0  0  0  0  0  0  0
    0.7145   -1.2375    0.0000 C   0  0  0  0  0  0  0  0  0  0  0  0
    0.0000   -1.6500    0.0000 O   0  0  0  0  0  0  0  0  0  0  0  0
    0.7145   -0.4125    0.0000 C   0  0  0  0  0  0  0  0  0  0  0  0
   -0.0000    0.0000    0.0000 C   0  0  0  0  0  0  0  0  0  0  0  0
   -0.0000    0.8250    0.0000 C   0  0  0  0  0  0  0  0  0  0  0  0
    0.7145    1.2375    0.0000 C   0  0  0  0  0  0  0  0  0  0  0  0
    0.7145    2.0625    0.0000 C   0  0  0  0  0  0  0  0  0  0  0  0
    1.4289    2.4750    0.0000 O   0  0  0  0  0  0  0  0  0  0  0  0
    0.0000    2.4750    0.0000 O   0  0  0  0  0  0  0  0  0  0  0  0
    0.0000    3.3000    0.0000 C   0  0  0  0  0  0  0  0  0  0  0  0
   -0.7145    3.7125    0.0000 C   0  0  0  0  0  0  0  0  0  0  0  0
   -0.7145    4.5375    0.0000 C   0  0  0  0  0  0  0  0  0  0  0  0
   -1.4289    4.9500    0.0000 C   0  0  0  0  0  0  0  0  0  0  0  0
   -1.4289    5.7750    0.0000 C   0  0  0  0  0  0  0  0  0  0  0  0
   -2.1434    6.1875    0.0000 C   0  0  0  0  0  0  0  0  0  0  0  0
   -2.1434    7.0125    0.0000 C   0  0  0  0  0  0  0  0  0  0  0  0
   -2.8579    7.4250    0.0000 C   0  0  0  0  0  0  0  0  0  0  0  0
    1.4289    0.8250    0.0000 C   0  0  0  0  0  0  0  0  0  0  0  0
    2.1434    1.2375    0.0000 C   0  0  0  0  0  0  0  0  0  0  0  0
    2.1434    2.0625    0.0000 O   0  0  0  0  0  0  0  0  0  0  0  0
    2.8579    0.8250    0.0000 O   0  0  0  0  0  0  0  0  0  0  0  0
    3.5724    1.2375    0.0000 C   0  0  0  0  0  0  0  0  0  0  0  0
    4.2868    0.8250    0.0000 C   0  0  0  0  0  0  0  0  0  0  0  0
    5.0013    1.2375    0.0000 C   0  0  0  0  0  0  0  0  0  0  0  0
    5.7158    0.8250    0.0000 C   0  0  0  0  0  0  0  0  0  0  0  0
    6.4302    1.2375    0.0000 C   0  0  0  0  0  0  0  0  0  0  0  0
    7.1447    0.8250    0.0000 C   0  0  0  0  0  0  0  0  0  0  0  0
    7.8592    1.2375    0.0000 C   0  0  0  0  0  0  0  0  0  0  0  0
    8.5737    0.8250    0.0000 C   0  0  0  0  0  0  0  0  0  0  0  0
    1.4289    0.0000    0.0000 C   0  0  0  0  0  0  0  0  0  0  0  0
  1  2  1  0  0  0  0
  2  3  1  0  0  0  0
  3  4  1  0  0  0  0
  4  5  1  0  0  0  0
  5  6  1  0  0  0  0
  6  7  1  0  0  0  0
  7  8  1  0  0  0  0
  8  9  1  0  0  0  0
  9 10  1  0  0  0  0
 10 11  2  0  0  0  0
 10 12  1  0  0  0  0
 12 13  4  0  0  0  0
 13 14  4  0  0  0  0
 14 15  4  0  0  0  0
 15 16  1  0  0  0  0
 16 17  2  0  0  0  0
 16 18  1  0  0  0  0
 18 19  1  0  0  0  0
 19 20  1  0  0  0  0
 20 21  1  0  0  0  0
 21 22  1  0  0  0  0
 22 23  1  0  0  0  0
 23 24  1  0  0  0  0
 24 25  1  0  0  0  0
 25 26  1  0  0  0  0
 15 27  4  0  0  0  0
 27 28  1  0  0  0  0
 28 29  2  0  0  0  0
 28 30  1  0  0  0  0
 30 31  1  0  0  0  0
 31 32  1  0  0  0  0
 32 33  1  0  0  0  0
 33 34  1  0  0  0  0
 34 35  1  0  0  0  0
 35 36  1  0  0  0  0
 36 37  1  0  0  0  0
 37 38  1  0  0  0  0
 27 39  4  0  0  0  0
 12 39  4  0  0  0  0
M  END
> <activity>
3.3

> <InChiKey>
JNXDCMUUZNIWPQ-UHFFFAOYSA-N

$$$$

  Mrv2220 08292413132D          

 15 14  0  0  0  0            999 V2000
    2.9980    2.5559    0.0000 C   0  0  0  0  0  0  0  0  0  0  0  0
    3.7125    2.1434    0.0000 C   0  0  0  0  0  0  0  0  0  0  0  0
    3.7125    1.3184    0.0000 O   0  0  0  0  0  0  0  0  0  0  0  0
    4.4270    2.5559    0.0000 O   0  0  0  0  0  0  0  0  0  0  0  0
    5.1414    2.1434    0.0000 C   0  0  0  0  0  0  0  0  0  0  0  0
    5.8559    2.5559    0.0000 C   0  0  0  0  0  0  0  0  0  0  0  0
    6.5704    2.1434    0.0000 C   0  0  0  0  0  0  0  0  0  0  0  0
    7.2849    2.5559    0.0000 O   0  0  0  0  0  0  0  0  0  0  0  0
    7.9993    2.1434    0.0000 C   0  0  0  0  0  0  0  0  0  0  0  0
    8.7138    2.5559    0.0000 C   0  0  0  0  0  0  0  0  0  0  0  0
    7.9993    1.3184    0.0000 O   0  0  0  0  0  0  0  0  0  0  0  0
    5.8559    3.3809    0.0000 O   0  0  0  0  0  0  0  0  0  0  0  0
    5.1414    3.7934    0.0000 C   0  0  0  0  0  0  0  0  0  0  0  0
    4.4270    3.3809    0.0000 C   0  0  0  0  0  0  0  0  0  0  0  0
    5.1414    4.6184    0.0000 O   0  0  0  0  0  0  0  0  0  0  0  0
  1  2  1  0  0  0  0
  2  3  2  0  0  0  0
  2  4  1  0  0  0  0
  4  5  1  0  0  0  0
  5  6  1  0  0  0  0
  6  7  1  0  0  0  0
  7  8  1  0  0  0  0
  8  9  1  0  0  0  0
  9 10  1  0  0  0  0
  9 11  2  0  0  0  0
  6 12  1  0  0  0  0
 12 13  1  0  0  0  0
 13 14  1  0  0  0  0
 13 15  2  0  0  0  0
M  END
> <activity>
4.2

> <InChiKey>
URAYPUMNDPQOKB-UHFFFAOYSA-N

$$$$

  Mrv2220 08292413132D          

 20 21  0  0  0  0            999 V2000
    0.6078    0.2277    0.0000 C   0  0  0  0  0  0  0  0  0  0  0  0
    1.3222    0.6402    0.0000 C   0  0  0  0  0  0  0  0  0  0  0  0
    1.7347   -0.0743    0.0000 C   0  0  0  0  0  0  0  0  0  0  0  0
    0.9097    1.3547    0.0000 C   0  0  0  0  0  0  0  0  0  0  0  0
    2.0367    1.0527    0.0000 C   0  0  0  0  0  0  0  0  0  0  0  0
    2.0367    1.8777    0.0000 O   0  0  0  0  0  0  0  0  0  0  0  0
    2.7512    0.6402    0.0000 C   0  0  0  0  0  0  0  0  0  0  0  0
    3.4656    1.0527    0.0000 O   0  0  0  0  0  0  0  0  0  0  0  0
    4.1801    0.6402    0.0000 C   0  0  0  0  0  0  0  0  0  0  0  0
    4.8946    1.0527    0.0000 C   0  0  0  0  0  0  0  0  0  0  0  0
    5.6091    0.6402    0.0000 C   0  0  0  0  0  0  0  0  0  0  0  0
    5.6091   -0.1848    0.0000 C   0  0  0  0  0  0  0  0  0  0  0  0
    6.3235   -0.5973    0.0000 Cl  0  0  0  0  0  0  0  0  0  0  0  0
    4.8946   -0.5973    0.0000 C   0  0  0  0  0  0  0  0  0  0  0  0
    4.1801   -0.1848    0.0000 C   0  0  0  0  0  0  0  0  0  0  0  0
    2.7512   -0.1848    0.0000 N   0  0  0  0  0  0  0  0  0  0  0  0
    3.4186   -0.6697    0.0000 C   0  0  0  0  0  0  0  0  0  0  0  0
    3.1637   -1.4544    0.0000 N   0  0  0  0  0  0  0  0  0  0  0  0
    2.3387   -1.4544    0.0000 C   0  0  0  0  0  0  0  0  0  0  0  0
    2.0837   -0.6697    0.0000 N   0  0  0  0  0  0  0  0  0  0  0  0
  1  2  1  0  0  0  0
  2  3  1  0  0  0  0
  2  4  1  0  0  0  0
  2  5  1  0  0  0  0
  5  6  2  0  0  0  0
  5  7  1  0  0  0  0
  7  8  1  0  0  0  0
  8  9  1  0  0  0  0
  9 10  4  0  0  0  0
 10 11  4  0  0  0  0
 11 12  4  0  0  0  0
 12 13  1  0  0  0  0
 12 14  4  0  0  0  0
 14 15  4  0  0  0  0
  9 15  4  0  0  0  0
  7 16  1  0  0  0  0
 16 17  4  0  0  0  0
 17 18  4  0  0  0  0
 18 19  4  0  0  0  0
 19 20  4  0  0  0  0
 16 20  4  0  0  0  0
M  END
> <activity>
4.7

> <InChiKey>
WURBVZBTWMNKQT-UHFFFAOYSA-N

$$$$

  Mrv2220 08292413132D          

 20 21  0  0  0  0            999 V2000
    0.6078    0.2277    0.0000 C   0  0  0  0  0  0  0  0  0  0  0  0
    1.3222    0.6402    0.0000 C   0  0  0  0  0  0  0  0  0  0  0  0
    1.7347   -0.0743    0.0000 C   0  0  0  0  0  0  0  0  0  0  0  0
    0.9097    1.3547    0.0000 C   0  0  0  0  0  0  0  0  0  0  0  0
    2.0367    1.0527    0.0000 C   0  0  0  0  0  0  0  0  0  0  0  0
    2.0367    1.8777    0.0000 O   0  0  0  0  0  0  0  0  0  0  0  0
    2.7512    0.6402    0.0000 C   0  0  0  0  0  0  0  0  0  0  0  0
    3.4656    1.0527    0.0000 O   0  0  0  0  0  0  0  0  0  0  0  0
    4.1801    0.6402    0.0000 C   0  0  0  0  0  0  0  0  0  0  0  0
    4.8946    1.0527    0.0000 C   0  0  0  0  0  0  0  0  0  0  0  0
    5.6091    0.6402    0.0000 C   0  0  0  0  0  0  0  0  0  0  0  0
    5.6091   -0.1848    0.0000 C   0  0  0  0  0  0  0  0  0  0  0  0
    6.3235   -0.5973    0.0000 Cl  0  0  0  0  0  0  0  0  0  0  0  0
    4.8946   -0.5973    0.0000 C   0  0  0  0  0  0  0  0  0  0  0  0
    4.1801   -0.1848    0.0000 C   0  0  0  0  0  0  0  0  0  0  0  0
    2.7512   -0.1848    0.0000 N   0  0  0  0  0  0  0  0  0  0  0  0
    3.4186   -0.6697    0.0000 C   0  0  0  0  0  0  0  0  0  0  0  0
    3.1637   -1.4544    0.0000 N   0  0  0  0  0  0  0  0  0  0  0  0
    2.3387   -1.4544    0.0000 C   0  0  0  0  0  0  0  0  0  0  0  0
    2.0837   -0.6697    0.0000 N   0  0  0  0  0  0  0  0  0  0  0  0
  1  2  1  0  0  0  0
  2  3  1  0  0  0  0
  2  4  1  0  0  0  0
  2  5  1  0  0  0  0
  5  6  1  0  0  0  0
  5  7  1  0  0  0  0
  7  8  1  0  0  0  0
  8  9  1  0  0  0  0
  9 10  4  0  0  0  0
 10 11  4  0  0  0  0
 11 12  4  0  0  0  0
 12 13  1  0  0  0  0
 12 14  4  0  0  0  0
 14 15  4  0  0  0  0
  9 15  4  0  0  0  0
  7 16  1  0  0  0  0
 16 17  4  0  0  0  0
 17 18  4  0  0  0  0
 18 19  4  0  0  0  0
 19 20  4  0  0  0  0
 16 20  4  0  0  0  0
M  END
> <activity>
10.4

> <InChiKey>
BAZVSMNPJJMILC-UHFFFAOYSA-N

$$$$

  Mrv2220 08292413132D          

 28 31  0  0  0  0            999 V2000
    3.9503   -1.7461    0.0000 C   0  0  0  0  0  0  0  0  0  0  0  0
    3.6700   -0.9702    0.0000 C   0  0  0  0  0  0  0  0  0  0  0  0
    3.1382   -1.6009    0.0000 C   0  0  0  0  0  0  0  0  0  0  0  0
    2.3261   -1.4557    0.0000 C   0  0  0  0  0  0  0  0  0  0  0  0
    2.0458   -0.6798    0.0000 C   0  0  0  0  0  0  0  0  0  0  0  0
    1.2336   -0.5346    0.0000 O   0  0  0  0  0  0  0  0  0  0  0  0
    2.5776   -0.0491    0.0000 C   0  0  0  0  0  0  0  0  0  0  0  0
    3.3897   -0.1943    0.0000 C   0  0  0  0  0  0  0  0  0  0  0  0
    3.9215    0.4364    0.0000 C   0  0  0  0  0  0  0  0  0  0  0  0
    4.7336    0.2912    0.0000 C   0  0  0  0  0  0  0  0  0  0  0  0
    5.0139   -0.4847    0.0000 C   0  0  0  0  0  0  0  0  0  0  0  0
    5.8261   -0.6299    0.0000 C   0  0  0  0  0  0  0  0  0  0  0  0
    6.4774   -0.1236    0.0000 C   0  0  0  0  0  0  0  0  0  0  0  0
    7.1602   -0.5866    0.0000 C   0  0  0  0  0  0  0  0  0  0  0  0
    7.9362   -0.3063    0.0000 O   0  0  0  0  0  0  0  0  0  0  0  0
    6.9309   -1.3791    0.0000 C   0  0  0  0  0  0  0  0  0  0  0  0
    6.8714   -2.2019    0.0000 O   0  0  0  0  0  0  0  0  0  0  0  0
    7.7430   -1.5243    0.0000 C   0  0  0  0  0  0  0  0  0  0  0  0
    8.2749   -0.8936    0.0000 O   0  0  0  0  0  0  0  0  0  0  0  0
    8.0233   -2.3002    0.0000 C   0  0  0  0  0  0  0  0  0  0  0  0
    8.8355   -2.4454    0.0000 O   0  0  0  0  0  0  0  0  0  0  0  0
    6.1064   -1.4059    0.0000 C   0  0  0  0  0  0  0  0  0  0  0  0
    6.4662   -2.1482    0.0000 C   0  0  0  0  0  0  0  0  0  0  0  0
    5.5745   -2.0366    0.0000 C   0  0  0  0  0  0  0  0  0  0  0  0
    4.7624   -1.8914    0.0000 C   0  0  0  0  0  0  0  0  0  0  0  0
    4.2306   -2.5221    0.0000 O   0  0  0  0  0  0  0  0  0  0  0  0
    4.4821   -1.1154    0.0000 C   0  0  0  0  0  0  0  0  0  0  0  0
    4.4226   -1.9383    0.0000 F   0  0  0  0  0  0  0  0  0  0  0  0
  1  2  1  0  0  0  0
  2  3  1  0  0  0  0
  3  4  2  0  0  0  0
  4  5  1  0  0  0  0
  5  6  2  0  0  0  0
  5  7  1  0  0  0  0
  7  8  2  0  0  0  0
  2  8  1  0  0  0  0
  8  9  1  0  0  0  0
  9 10  1  0  0  0  0
 10 11  1  0  0  0  0
 11 12  1  0  0  0  0
 12 13  1  0  0  0  0
 13 14  1  0  0  0  0
 14 15  1  0  0  0  0
 14 16  1  0  0  0  0
 16 17  1  0  0  0  0
 16 18  1  0  0  0  0
 18 19  2  0  0  0  0
 18 20  1  0  0  0  0
 20 21  1  0  0  0  0
 16 22  1  0  0  0  0
 12 22  1  0  0  0  0
 22 23  1  0  0  0  0
 22 24  1  0  0  0  0
 24 25  1  0  0  0  0
 25 26  1  0  0  0  0
 25 27  1  0  0  0  0
 11 27  1  0  0  0  0
  2 27  1  0  0  0  0
 27 28  1  0  0  0  0
M  END
> <activity>
2.0

> <InChiKey>
GFNANZIMVAIWHM-UHFFFAOYSA-N

$$$$

  Mrv2220 08292413132D          

 17 16  0  0  0  0            999 V2000
   -3.9039    0.6039    0.0000 C   0  0  0  0  0  0  0  0  0  0  0  0
   -3.0789    0.6039    0.0000 C   0  0  0  0  0  0  0  0  0  0  0  0
   -2.6664   -0.1105    0.0000 C   0  0  0  0  0  0  0  0  0  0  0  0
   -1.8414   -0.1105    0.0000 C   0  0  0  0  0  0  0  0  0  0  0  0
   -1.4289   -0.8250    0.0000 S   0  0  0  0  0  0  0  0  0  0  0  0
   -0.6039   -0.8250    0.0000 P   0  0  0  0  0  0  0  0  0  0  0  0
   -0.6039   -1.6500    0.0000 O   0  0  0  0  0  0  0  0  0  0  0  0
    0.2211   -0.8250    0.0000 S   0  0  0  0  0  0  0  0  0  0  0  0
    0.6336   -1.5395    0.0000 C   0  0  0  0  0  0  0  0  0  0  0  0
    1.4586   -1.5395    0.0000 C   0  0  0  0  0  0  0  0  0  0  0  0
    1.8711   -2.2539    0.0000 C   0  0  0  0  0  0  0  0  0  0  0  0
    2.6961   -2.2539    0.0000 C   0  0  0  0  0  0  0  0  0  0  0  0
   -0.6039    0.0000    0.0000 S   0  0  0  0  0  0  0  0  0  0  0  0
    0.1105    0.4125    0.0000 C   0  0  0  0  0  0  0  0  0  0  0  0
    0.8250    0.0000    0.0000 C   0  0  0  0  0  0  0  0  0  0  0  0
    1.5395    0.4125    0.0000 C   0  0  0  0  0  0  0  0  0  0  0  0
    2.2539   -0.0000    0.0000 C   0  0  0  0  0  0  0  0  0  0  0  0
  1  2  1  0  0  0  0
  2  3  1  0  0  0  0
  3  4  1  0  0  0  0
  4  5  1  0  0  0  0
  5  6  1  0  0  0  0
  6  7  2  0  0  0  0
  6  8  1  0  0  0  0
  8  9  1  0  0  0  0
  9 10  1  0  0  0  0
 10 11  1  0  0  0  0
 11 12  1  0  0  0  0
  6 13  1  0  0  0  0
 13 14  1  0  0  0  0
 14 15  1  0  0  0  0
 15 16  1  0  0  0  0
 16 17  1  0  0  0  0
M  END
> <activity>
51.2

> <InChiKey>
ZOKXUAHZSKEQSS-UHFFFAOYSA-N

$$$$

  Mrv2220 08292413132D          

 17 16  0  0  0  0            999 V2000
   -3.9039    0.6039    0.0000 C   0  0  0  0  0  0  0  0  0  0  0  0
   -3.0789    0.6039    0.0000 C   0  0  0  0  0  0  0  0  0  0  0  0
   -2.6664   -0.1105    0.0000 C   0  0  0  0  0  0  0  0  0  0  0  0
   -1.8414   -0.1105    0.0000 C   0  0  0  0  0  0  0  0  0  0  0  0
   -1.4289   -0.8250    0.0000 O   0  0  0  0  0  0  0  0  0  0  0  0
   -0.6039   -0.8250    0.0000 P   0  0  0  0  0  0  0  0  0  0  0  0
   -0.6039   -1.6500    0.0000 O   0  0  0  0  0  0  0  0  0  0  0  0
    0.2211   -0.8250    0.0000 O   0  0  0  0  0  0  0  0  0  0  0  0
    0.6336   -1.5395    0.0000 C   0  0  0  0  0  0  0  0  0  0  0  0
    1.4586   -1.5395    0.0000 C   0  0  0  0  0  0  0  0  0  0  0  0
    1.8711   -2.2539    0.0000 C   0  0  0  0  0  0  0  0  0  0  0  0
    2.6961   -2.2539    0.0000 C   0  0  0  0  0  0  0  0  0  0  0  0
   -0.6039    0.0000    0.0000 O   0  0  0  0  0  0  0  0  0  0  0  0
    0.1105    0.4125    0.0000 C   0  0  0  0  0  0  0  0  0  0  0  0
    0.8250    0.0000    0.0000 C   0  0  0  0  0  0  0  0  0  0  0  0
    1.5395    0.4125    0.0000 C   0  0  0  0  0  0  0  0  0  0  0  0
    2.2539   -0.0000    0.0000 C   0  0  0  0  0  0  0  0  0  0  0  0
  1  2  1  0  0  0  0
  2  3  1  0  0  0  0
  3  4  1  0  0  0  0
  4  5  1  0  0  0  0
  5  6  1  0  0  0  0
  6  7  2  0  0  0  0
  6  8  1  0  0  0  0
  8  9  1  0  0  0  0
  9 10  1  0  0  0  0
 10 11  1  0  0  0  0
 11 12  1  0  0  0  0
  6 13  1  0  0  0  0
 13 14  1  0  0  0  0
 14 15  1  0  0  0  0
 15 16  1  0  0  0  0
 16 17  1  0  0  0  0
M  END
> <activity>
1.5

> <InChiKey>
STCOOQWBFONSKY-UHFFFAOYSA-N

$$$$

  Mrv2220 08292413132D          

 13 12  0  0  0  0            999 V2000
    5.3329    5.5539    0.0000 C   0  0  0  0  0  0  0  0  0  0  0  0
    4.6184    5.1414    0.0000 C   0  0  0  0  0  0  0  0  0  0  0  0
    4.6184    4.3164    0.0000 C   0  0  0  0  0  0  0  0  0  0  0  0
    3.9039    3.9039    0.0000 C   0  0  0  0  0  0  0  0  0  0  0  0
    3.9039    3.0789    0.0000 N   0  0  0  0  0  0  0  0  0  0  0  0
    3.1895    2.6664    0.0000 C   0  0  0  0  0  0  0  0  0  0  0  0
    3.1895    1.8414    0.0000 C   0  0  0  0  0  0  0  0  0  0  0  0
    2.4750    1.4289    0.0000 C   0  0  0  0  0  0  0  0  0  0  0  0
    2.4750    0.6039    0.0000 C   0  0  0  0  0  0  0  0  0  0  0  0
    4.6184    2.6664    0.0000 C   0  0  0  0  0  0  0  0  0  0  0  0
    4.6184    1.8414    0.0000 C   0  0  0  0  0  0  0  0  0  0  0  0
    5.3329    1.4289    0.0000 C   0  0  0  0  0  0  0  0  0  0  0  0
    5.3329    0.6039    0.0000 C   0  0  0  0  0  0  0  0  0  0  0  0
  1  2  1  0  0  0  0
  2  3  1  0  0  0  0
  3  4  1  0  0  0  0
  4  5  1  0  0  0  0
  5  6  1  0  0  0  0
  6  7  1  0  0  0  0
  7  8  1  0  0  0  0
  8  9  1  0  0  0  0
  5 10  1  0  0  0  0
 10 11  1  0  0  0  0
 11 12  1  0  0  0  0
 12 13  1  0  0  0  0
M  END
> <activity>
38.5

> <InChiKey>
IMFACGCPASFAPR-UHFFFAOYSA-N

$$$$

  Mrv2220 08292413132D          

 12 11  0  0  0  0            999 V2000
   -0.6039   -2.4750    0.0000 C   0  0  0  0  0  0  0  0  0  0  0  0
   -0.6039   -1.6500    0.0000 O   0  0  0  0  0  0  0  0  0  0  0  0
    0.1105   -1.2375    0.0000 P   0  0  0  0  0  0  0  0  0  0  0  0
    0.5230   -1.9520    0.0000 O   0  0  0  0  0  0  0  0  0  0  0  0
   -0.3020   -0.5230    0.0000 O   0  0  0  0  0  0  0  0  0  0  0  0
   -1.1270   -0.5230    0.0000 C   0  0  0  0  0  0  0  0  0  0  0  0
    0.8250   -0.8250    0.0000 C   0  0  0  0  0  0  0  0  0  0  0  0
    1.5395   -1.2375    0.0000 O   0  0  0  0  0  0  0  0  0  0  0  0
    0.8250    0.0000    0.0000 C   0  0  0  0  0  0  0  0  0  0  0  0
    0.8250    0.8250    0.0000 Cl  0  0  0  0  0  0  0  0  0  0  0  0
    1.6500   -0.0000    0.0000 Cl  0  0  0  0  0  0  0  0  0  0  0  0
    0.0000    0.0000    0.0000 Cl  0  0  0  0  0  0  0  0  0  0  0  0
  1  2  1  0  0  0  0
  2  3  1  0  0  0  0
  3  4  2  0  0  0  0
  3  5  1  0  0  0  0
  5  6  1  0  0  0  0
  3  7  1  0  0  0  0
  7  8  1  0  0  0  0
  7  9  1  0  0  0  0
  9 10  1  0  0  0  0
  9 11  1  0  0  0  0
  9 12  1  0  0  0  0
M  END
> <activity>
20.8

> <InChiKey>
NFACJZMKEDPNKN-UHFFFAOYSA-N

$$$$

  Mrv2220 08292413132D          

 14 14  0  0  0  0            999 V2000
   -0.7145    3.7125    0.0000 O   0  0  0  0  0  0  0  0  0  0  0  0
    0.0000    3.3000    0.0000 C   0  0  0  0  0  0  0  0  0  0  0  0
    0.7145    3.7125    0.0000 O   0  0  0  0  0  0  0  0  0  0  0  0
    0.0000    2.4750    0.0000 C   0  0  0  0  0  0  0  0  0  0  0  0
    0.7145    2.0625    0.0000 O   0  0  0  0  0  0  0  0  0  0  0  0
    0.7145    1.2375    0.0000 C   0  0  0  0  0  0  0  0  0  0  0  0
    1.4289    0.8250    0.0000 N   0  0  0  0  0  0  0  0  0  0  0  0
    1.4289   -0.0000    0.0000 C   0  0  0  0  0  0  0  0  0  0  0  0
    2.1434   -0.4125    0.0000 Cl  0  0  0  0  0  0  0  0  0  0  0  0
    0.7145   -0.4125    0.0000 C   0  0  0  0  0  0  0  0  0  0  0  0
    0.7145   -1.2375    0.0000 Cl  0  0  0  0  0  0  0  0  0  0  0  0
    0.0000    0.0000    0.0000 C   0  0  0  0  0  0  0  0  0  0  0  0
    0.0000    0.8250    0.0000 C   0  0  0  0  0  0  0  0  0  0  0  0
   -0.7145    1.2375    0.0000 Cl  0  0  0  0  0  0  0  0  0  0  0  0
  1  2  2  0  0  0  0
  2  3  1  0  0  0  0
  2  4  1  0  0  0  0
  4  5  1  0  0  0  0
  5  6  1  0  0  0  0
  6  7  4  0  0  0  0
  7  8  4  0  0  0  0
  8  9  1  0  0  0  0
  8 10  4  0  0  0  0
 10 11  1  0  0  0  0
 10 12  4  0  0  0  0
 12 13  4  0  0  0  0
  6 13  4  0  0  0  0
 13 14  1  0  0  0  0
M  END
> <activity>
93.9

> <InChiKey>
REEQLXCGVXDJSQ-UHFFFAOYSA-N

$$$$

  Mrv2220 08292413132D          

 17 18  0  0  0  0            999 V2000
    2.1434   -0.4125    0.0000 O   0  0  0  0  0  0  0  0  0  0  0  0
    2.1434   -1.2375    0.0000 C   0  0  0  0  0  0  0  0  0  0  0  0
    1.4289   -1.6500    0.0000 C   0  0  0  0  0  0  0  0  0  0  0  0
    1.4289   -2.4750    0.0000 C   0  0  0  0  0  0  0  0  0  0  0  0
    0.7145   -2.8875    0.0000 Cl  0  0  0  0  0  0  0  0  0  0  0  0
    2.1434   -2.8875    0.0000 C   0  0  0  0  0  0  0  0  0  0  0  0
    2.8579   -2.4750    0.0000 C   0  0  0  0  0  0  0  0  0  0  0  0
    2.8579   -1.6500    0.0000 C   0  0  0  0  0  0  0  0  0  0  0  0
    3.5724   -1.2375    0.0000 O   0  0  0  0  0  0  0  0  0  0  0  0
    4.2868   -1.6500    0.0000 C   0  0  0  0  0  0  0  0  0  0  0  0
    5.0013   -1.2375    0.0000 C   0  0  0  0  0  0  0  0  0  0  0  0
    5.7158   -1.6500    0.0000 C   0  0  0  0  0  0  0  0  0  0  0  0
    5.7158   -2.4750    0.0000 C   0  0  0  0  0  0  0  0  0  0  0  0
    6.4302   -2.8875    0.0000 Cl  0  0  0  0  0  0  0  0  0  0  0  0
    5.0013   -2.8875    0.0000 C   0  0  0  0  0  0  0  0  0  0  0  0
    4.2868   -2.4750    0.0000 C   0  0  0  0  0  0  0  0  0  0  0  0
    3.5724   -2.8875    0.0000 Cl  0  0  0  0  0  0  0  0  0  0  0  0
  1  2  1  0  0  0  0
  2  3  4  0  0  0  0
  3  4  4  0  0  0  0
  4  5  1  0  0  0  0
  4  6  4  0  0  0  0
  6  7  4  0  0  0  0
  7  8  4  0  0  0  0
  2  8  4  0  0  0  0
  8  9  1  0  0  0  0
  9 10  1  0  0  0  0
 10 11  4  0  0  0  0
 11 12  4  0  0  0  0
 12 13  4  0  0  0  0
 13 14  1  0  0  0  0
 13 15  4  0  0  0  0
 15 16  4  0  0  0  0
 10 16  4  0  0  0  0
 16 17  1  0  0  0  0
M  END
> <activity>
106.0

> <InChiKey>
XEFQLINVKFYRCS-UHFFFAOYSA-N

$$$$

  Mrv2220 08292413132D          

 10  9  0  0  0  0            999 V2000
    1.4289   -4.7289    0.0000 O   0  0  0  0  0  0  0  0  0  0  0  0
    1.4289   -3.9039    0.0000 C   0  0  0  0  0  0  0  0  0  0  0  0
    0.7145   -3.4914    0.0000 C   0  0  0  0  0  0  0  0  0  0  0  0
    0.7145   -2.6664    0.0000 N   0  0  0  0  0  0  0  0  0  0  0  0
    0.0000   -2.2539    0.0000 C   0  0  0  0  0  0  0  0  0  0  0  0
    0.0000   -1.4289    0.0000 C   0  0  0  0  0  0  0  0  0  0  0  0
   -0.7145   -1.0164    0.0000 O   0  0  0  0  0  0  0  0  0  0  0  0
    1.4289   -2.2539    0.0000 C   0  0  0  0  0  0  0  0  0  0  0  0
    1.4289   -1.4289    0.0000 C   0  0  0  0  0  0  0  0  0  0  0  0
    2.1434   -1.0164    0.0000 O   0  0  0  0  0  0  0  0  0  0  0  0
  1  2  1  0  0  0  0
  2  3  1  0  0  0  0
  3  4  1  0  0  0  0
  4  5  1  0  0  0  0
  5  6  1  0  0  0  0
  6  7  1  0  0  0  0
  4  8  1  0  0  0  0
  8  9  1  0  0  0  0
  9 10  1  0  0  0  0
M  END
> <activity>
5.9

> <InChiKey>
GSEJCLTVZPLZKY-UHFFFAOYSA-N

$$$$

  Mrv2220 08292413132D          

 19 18  0  0  0  0            999 V2000
    4.0954    0.4934    0.0000 C   0  0  0  0  0  0  0  0  0  0  0  0
    3.3809    0.9059    0.0000 C   0  0  0  0  0  0  0  0  0  0  0  0
    3.3809    1.7309    0.0000 O   0  0  0  0  0  0  0  0  0  0  0  0
    2.6664    2.1434    0.0000 C   0  0  0  0  0  0  0  0  0  0  0  0
    2.6664    2.9684    0.0000 O   0  0  0  0  0  0  0  0  0  0  0  0
    1.9520    1.7309    0.0000 C   0  0  0  0  0  0  0  0  0  0  0  0
    1.2375    2.1434    0.0000 C   0  0  0  0  0  0  0  0  0  0  0  0
    1.6500    2.8579    0.0000 O   0  0  0  0  0  0  0  0  0  0  0  0
    0.5230    2.5559    0.0000 C   0  0  0  0  0  0  0  0  0  0  0  0
    0.5230    3.3809    0.0000 C   0  0  0  0  0  0  0  0  0  0  0  0
    1.2375    3.7934    0.0000 O   0  0  0  0  0  0  0  0  0  0  0  0
   -0.1914    3.7934    0.0000 O   0  0  0  0  0  0  0  0  0  0  0  0
   -0.1914    4.6184    0.0000 C   0  0  0  0  0  0  0  0  0  0  0  0
   -0.9059    5.0309    0.0000 C   0  0  0  0  0  0  0  0  0  0  0  0
    0.8250    1.4289    0.0000 C   0  0  0  0  0  0  0  0  0  0  0  0
   -0.0000    1.4289    0.0000 O   0  0  0  0  0  0  0  0  0  0  0  0
    1.2375    0.7145    0.0000 O   0  0  0  0  0  0  0  0  0  0  0  0
    0.8250    0.0000    0.0000 C   0  0  0  0  0  0  0  0  0  0  0  0
    0.0000    0.0000    0.0000 C   0  0  0  0  0  0  0  0  0  0  0  0
  1  2  1  0  0  0  0
  2  3  1  0  0  0  0
  3  4  1  0  0  0  0
  4  5  2  0  0  0  0
  4  6  1  0  0  0  0
  6  7  1  0  0  0  0
  7  8  1  0  0  0  0
  7  9  1  0  0  0  0
  9 10  1  0  0  0  0
 10 11  2  0  0  0  0
 10 12  1  0  0  0  0
 12 13  1  0  0  0  0
 13 14  1  0  0  0  0
  7 15  1  0  0  0  0
 15 16  2  0  0  0  0
 15 17  1  0  0  0  0
 17 18  1  0  0  0  0
 18 19  1  0  0  0  0
M  END
> <activity>
14.7

> <InChiKey>
DOOTYTYQINUNNV-UHFFFAOYSA-N

$$$$

  Mrv2220 08292413132D          

 11 10  0  0  0  0            999 V2000
    2.9684    1.8414    0.0000 C   0  0  0  0  0  0  0  0  0  0  0  0
    2.2539    1.4289    0.0000 C   0  0  0  0  0  0  0  0  0  0  0  0
    1.5395    1.8414    0.0000 O   0  0  0  0  0  0  0  0  0  0  0  0
    0.8250    1.4289    0.0000 P   0  0  0  0  0  0  0  0  0  0  0  0
    0.4125    2.1434    0.0000 O   0  0  0  0  0  0  0  0  0  0  0  0
    0.1105    1.0164    0.0000 O   0  0  0  0  0  0  0  0  0  0  0  0
   -0.6039    1.4289    0.0000 C   0  0  0  0  0  0  0  0  0  0  0  0
   -1.3184    1.0164    0.0000 C   0  0  0  0  0  0  0  0  0  0  0  0
    1.2375    0.7145    0.0000 O   0  0  0  0  0  0  0  0  0  0  0  0
    0.8250    0.0000    0.0000 C   0  0  0  0  0  0  0  0  0  0  0  0
    0.0000    0.0000    0.0000 C   0  0  0  0  0  0  0  0  0  0  0  0
  1  2  1  0  0  0  0
  2  3  1  0  0  0  0
  3  4  1  0  0  0  0
  4  5  2  0  0  0  0
  4  6  1  0  0  0  0
  6  7  1  0  0  0  0
  7  8  1  0  0  0  0
  4  9  1  0  0  0  0
  9 10  1  0  0  0  0
 10 11  1  0  0  0  0
M  END
> <activity>
6.6

> <InChiKey>
DQWPFSLDHJDLRL-UHFFFAOYSA-N

$$$$

  Mrv2220 08292413132D          

 28 27  0  0  0  0            999 V2000
    9.7086    6.4302    0.0000 C   0  0  0  0  0  0  0  0  0  0  0  0
   10.4230    6.8427    0.0000 C   0  0  0  0  0  0  0  0  0  0  0  0
   11.1375    6.4302    0.0000 C   0  0  0  0  0  0  0  0  0  0  0  0
   11.8520    6.8427    0.0000 C   0  0  0  0  0  0  0  0  0  0  0  0
   12.5664    6.4302    0.0000 C   0  0  0  0  0  0  0  0  0  0  0  0
   12.5664    5.6052    0.0000 C   0  0  0  0  0  0  0  0  0  0  0  0
   13.2809    5.1927    0.0000 C   0  0  0  0  0  0  0  0  0  0  0  0
   13.2809    6.8427    0.0000 C   0  0  0  0  0  0  0  0  0  0  0  0
   13.2809    7.6677    0.0000 O   0  0  0  0  0  0  0  0  0  0  0  0
   13.9954    6.4302    0.0000 O   0  0  0  0  0  0  0  0  0  0  0  0
   14.7099    6.8427    0.0000 C   0  0  0  0  0  0  0  0  0  0  0  0
   15.4243    6.4302    0.0000 C   0  0  0  0  0  0  0  0  0  0  0  0
   16.1388    6.8427    0.0000 O   0  0  0  0  0  0  0  0  0  0  0  0
   16.8533    6.4302    0.0000 C   0  0  0  0  0  0  0  0  0  0  0  0
   17.5677    6.8427    0.0000 C   0  0  0  0  0  0  0  0  0  0  0  0
   18.2822    6.4302    0.0000 O   0  0  0  0  0  0  0  0  0  0  0  0
   18.9967    6.8427    0.0000 C   0  0  0  0  0  0  0  0  0  0  0  0
   19.7112    6.4302    0.0000 C   0  0  0  0  0  0  0  0  0  0  0  0
   20.4256    6.8427    0.0000 O   0  0  0  0  0  0  0  0  0  0  0  0
   21.1401    6.4302    0.0000 C   0  0  0  0  0  0  0  0  0  0  0  0
   21.1401    5.6052    0.0000 O   0  0  0  0  0  0  0  0  0  0  0  0
   21.8546    6.8427    0.0000 C   0  0  0  0  0  0  0  0  0  0  0  0
   21.8546    7.6677    0.0000 C   0  0  0  0  0  0  0  0  0  0  0  0
   22.5690    8.0802    0.0000 C   0  0  0  0  0  0  0  0  0  0  0  0
   22.5690    6.4302    0.0000 C   0  0  0  0  0  0  0  0  0  0  0  0
   23.2835    6.8427    0.0000 C   0  0  0  0  0  0  0  0  0  0  0  0
   23.9980    6.4302    0.0000 C   0  0  0  0  0  0  0  0  0  0  0  0
   24.7124    6.8427    0.0000 C   0  0  0  0  0  0  0  0  0  0  0  0
  1  2  1  0  0  0  0
  2  3  1  0  0  0  0
  3  4  1  0  0  0  0
  4  5  1  0  0  0  0
  5  6  1  0  0  0  0
  6  7  1  0  0  0  0
  5  8  1  0  0  0  0
  8  9  2  0  0  0  0
  8 10  1  0  0  0  0
 10 11  1  0  0  0  0
 11 12  1  0  0  0  0
 12 13  1  0  0  0  0
 13 14  1  0  0  0  0
 14 15  1  0  0  0  0
 15 16  1  0  0  0  0
 16 17  1  0  0  0  0
 17 18  1  0  0  0  0
 18 19  1  0  0  0  0
 19 20  1  0  0  0  0
 20 21  2  0  0  0  0
 20 22  1  0  0  0  0
 22 23  1  0  0  0  0
 23 24  1  0  0  0  0
 22 25  1  0  0  0  0
 25 26  1  0  0  0  0
 26 27  1  0  0  0  0
 27 28  1  0  0  0  0
M  END
> <activity>
7.4

> <InChiKey>
FRQDZJMEHSJOPU-UHFFFAOYSA-N

$$$$

  Mrv2220 08292413132D          

 16 15  0  0  0  0            999 V2000
    4.7586    3.5724    0.0000 C   0  0  0  0  0  0  0  0  0  0  0  0
    5.4730    3.9849    0.0000 C   0  0  0  0  0  0  0  0  0  0  0  0
    5.4730    4.8099    0.0000 O   0  0  0  0  0  0  0  0  0  0  0  0
    6.1875    3.5724    0.0000 O   0  0  0  0  0  0  0  0  0  0  0  0
    6.9020    3.9849    0.0000 C   0  0  0  0  0  0  0  0  0  0  0  0
    7.6164    3.5724    0.0000 C   0  0  0  0  0  0  0  0  0  0  0  0
    8.3309    3.9849    0.0000 O   0  0  0  0  0  0  0  0  0  0  0  0
    9.0454    3.5724    0.0000 C   0  0  0  0  0  0  0  0  0  0  0  0
    9.7599    3.9849    0.0000 C   0  0  0  0  0  0  0  0  0  0  0  0
   10.4743    3.5724    0.0000 O   0  0  0  0  0  0  0  0  0  0  0  0
   11.1888    3.9849    0.0000 C   0  0  0  0  0  0  0  0  0  0  0  0
   11.9033    3.5724    0.0000 C   0  0  0  0  0  0  0  0  0  0  0  0
   12.6177    3.9849    0.0000 O   0  0  0  0  0  0  0  0  0  0  0  0
   13.3322    3.5724    0.0000 C   0  0  0  0  0  0  0  0  0  0  0  0
   14.0467    3.9849    0.0000 C   0  0  0  0  0  0  0  0  0  0  0  0
   13.3322    2.7474    0.0000 O   0  0  0  0  0  0  0  0  0  0  0  0
  1  2  1  0  0  0  0
  2  3  2  0  0  0  0
  2  4  1  0  0  0  0
  4  5  1  0  0  0  0
  5  6  1  0  0  0  0
  6  7  1  0  0  0  0
  7  8  1  0  0  0  0
  8  9  1  0  0  0  0
  9 10  1  0  0  0  0
 10 11  1  0  0  0  0
 11 12  1  0  0  0  0
 12 13  1  0  0  0  0
 13 14  1  0  0  0  0
 14 15  1  0  0  0  0
 14 16  2  0  0  0  0
M  END
> <activity>
12.6

> <InChiKey>
OVOUKWFJRHALDD-UHFFFAOYSA-N

$$$$

  Mrv2220 08292413132D          

 29 30  0  0  0  0            999 V2000
   -0.7145   -1.2375    0.0000 C   0  0  0  0  0  0  0  0  0  0  0  0
   -1.4289   -1.6500    0.0000 O   0  0  0  0  0  0  0  0  0  0  0  0
   -1.4289   -2.4750    0.0000 N   0  0  0  0  0  0  0  0  0  0  0  0
   -0.7145   -2.8875    0.0000 C   0  0  0  0  0  0  0  0  0  0  0  0
    0.0000   -2.4750    0.0000 C   0  0  0  0  0  0  0  0  0  0  0  0
    0.0000   -1.6500    0.0000 O   0  0  0  0  0  0  0  0  0  0  0  0
    0.7145   -2.8875    0.0000 O   0  0  0  0  0  0  0  0  0  0  0  0
    0.7145   -3.7125    0.0000 C   0  0  0  0  0  0  0  0  0  0  0  0
   -0.7145   -3.7125    0.0000 C   0  0  0  0  0  0  0  0  0  0  0  0
    0.0000   -4.1250    0.0000 C   0  0  0  0  0  0  0  0  0  0  0  0
    0.0000   -4.9500    0.0000 C   0  0  0  0  0  0  0  0  0  0  0  0
   -0.7145   -5.3625    0.0000 C   0  0  0  0  0  0  0  0  0  0  0  0
   -1.4289   -4.9500    0.0000 C   0  0  0  0  0  0  0  0  0  0  0  0
   -1.4289   -4.1250    0.0000 C   0  0  0  0  0  0  0  0  0  0  0  0
   -2.1434   -3.7125    0.0000 C   0  0  0  0  0  0  0  0  0  0  0  0
   -2.1434   -2.8875    0.0000 O   0  0  0  0  0  0  0  0  0  0  0  0
   -2.8579   -2.4750    0.0000 N   0  0  0  0  0  0  0  0  0  0  0  0
   -2.8579   -1.6500    0.0000 C   0  0  0  0  0  0  0  0  0  0  0  0
   -2.1434   -1.2375    0.0000 C   0  0  0  0  0  0  0  0  0  0  0  0
   -3.5724   -1.2375    0.0000 C   0  0  0  0  0  0  0  0  0  0  0  0
   -4.2868   -1.6500    0.0000 C   0  0  0  0  0  0  0  0  0  0  0  0
   -5.0013   -1.2375    0.0000 C   0  0  0  0  0  0  0  0  0  0  0  0
   -5.0013   -0.4125    0.0000 C   0  0  0  0  0  0  0  0  0  0  0  0
   -4.2868    0.0000    0.0000 C   0  0  0  0  0  0  0  0  0  0  0  0
   -4.2868    0.8250    0.0000 C   0  0  0  0  0  0  0  0  0  0  0  0
   -4.2868    1.6500    0.0000 F   0  0  0  0  0  0  0  0  0  0  0  0
   -3.4618    0.8250    0.0000 F   0  0  0  0  0  0  0  0  0  0  0  0
   -5.1118    0.8250    0.0000 F   0  0  0  0  0  0  0  0  0  0  0  0
   -3.5724   -0.4125    0.0000 C   0  0  0  0  0  0  0  0  0  0  0  0
  1  2  1  0  0  0  0
  3  2  1  4  0  0  0
  3  4  2  0  0  0  0
  4  5  1  0  0  0  0
  5  6  2  0  0  0  0
  5  7  1  0  0  0  0
  7  8  1  0  0  0  0
  4  9  1  0  0  0  0
  9 10  4  0  0  0  0
 10 11  4  0  0  0  0
 11 12  4  0  0  0  0
 12 13  4  0  0  0  0
 13 14  4  0  0  0  0
  9 14  4  0  0  0  0
 14 15  1  0  0  0  0
 15 16  1  0  0  0  0
 17 16  1  4  0  0  0
 17 18  2  0  0  0  0
 18 19  1  0  0  0  0
 18 20  1  0  0  0  0
 20 21  4  0  0  0  0
 21 22  4  0  0  0  0
 22 23  4  0  0  0  0
 23 24  4  0  0  0  0
 24 25  1  0  0  0  0
 25 26  1  0  0  0  0
 25 27  1  0  0  0  0
 25 28  1  0  0  0  0
 24 29  4  0  0  0  0
 20 29  4  0  0  0  0
M  END
> <activity>
65.4

> <InChiKey>
ONCZDRURRATYFI-UHFFFAOYSA-N

$$$$

  Mrv2220 08292413132D          

 29 30  0  0  0  0            999 V2000
   -0.7145   -2.0625    0.0000 C   0  0  0  0  0  0  0  0  0  0  0  0
   -1.4289   -2.4750    0.0000 O   0  0  0  0  0  0  0  0  0  0  0  0
   -1.4289   -3.3000    0.0000 C   0  0  0  0  0  0  0  0  0  0  0  0
   -0.7145   -3.7125    0.0000 C   0  0  0  0  0  0  0  0  0  0  0  0
   -0.7145   -4.5375    0.0000 C   0  0  0  0  0  0  0  0  0  0  0  0
    0.0000   -4.9500    0.0000 O   0  0  0  0  0  0  0  0  0  0  0  0
    0.0000   -5.7750    0.0000 C   0  0  0  0  0  0  0  0  0  0  0  0
   -1.4289   -4.9500    0.0000 N   0  0  0  0  0  0  0  0  0  0  0  0
   -2.1434   -4.5375    0.0000 C   0  0  0  0  0  0  0  0  0  0  0  0
   -2.8579   -4.9500    0.0000 N   0  0  0  0  0  0  0  0  0  0  0  0
   -2.8579   -5.7750    0.0000 C   0  0  0  0  0  0  0  0  0  0  0  0
   -2.1434   -6.1875    0.0000 O   0  0  0  0  0  0  0  0  0  0  0  0
   -3.5724   -6.1875    0.0000 N   0  0  0  0  0  0  0  0  0  0  0  0
   -3.5724   -7.0125    0.0000 S   0  0  0  0  0  0  0  0  0  0  0  0
   -4.3974   -7.0125    0.0000 O   0  0  0  0  0  0  0  0  0  0  0  0
   -2.7474   -7.0125    0.0000 O   0  0  0  0  0  0  0  0  0  0  0  0
   -3.5724   -7.8375    0.0000 C   0  0  0  0  0  0  0  0  0  0  0  0
   -2.8579   -8.2500    0.0000 N   0  0  0  0  0  0  0  0  0  0  0  0
   -2.8579   -9.0750    0.0000 C   0  0  0  0  0  0  0  0  0  0  0  0
   -3.5724   -9.4875    0.0000 C   0  0  0  0  0  0  0  0  0  0  0  0
   -4.2868   -9.0750    0.0000 C   0  0  0  0  0  0  0  0  0  0  0  0
   -4.2868   -8.2500    0.0000 C   0  0  0  0  0  0  0  0  0  0  0  0
   -5.0013   -7.8375    0.0000 O   0  0  0  0  0  0  0  0  0  0  0  0
   -5.7158   -8.2500    0.0000 C   0  0  0  0  0  0  0  0  0  0  0  0
   -5.7158   -9.0750    0.0000 C   0  0  0  0  0  0  0  0  0  0  0  0
   -5.7158   -9.9000    0.0000 F   0  0  0  0  0  0  0  0  0  0  0  0
   -6.5408   -9.0750    0.0000 F   0  0  0  0  0  0  0  0  0  0  0  0
   -4.8908   -9.0750    0.0000 F   0  0  0  0  0  0  0  0  0  0  0  0
   -2.1434   -3.7125    0.0000 N   0  0  0  0  0  0  0  0  0  0  0  0
  1  2  1  0  0  0  0
  2  3  1  0  0  0  0
  3  4  4  0  0  0  0
  4  5  4  0  0  0  0
  5  6  1  0  0  0  0
  6  7  1  0  0  0  0
  5  8  4  0  0  0  0
  8  9  4  0  0  0  0
  9 10  1  0  0  0  0
 10 11  1  0  0  0  0
 11 12  2  0  0  0  0
 11 13  1  0  0  0  0
 13 14  1  0  0  0  0
 14 15  2  0  0  0  0
 14 16  2  0  0  0  0
 14 17  1  0  0  0  0
 17 18  4  0  0  0  0
 18 19  4  0  0  0  0
 19 20  4  0  0  0  0
 20 21  4  0  0  0  0
 21 22  4  0  0  0  0
 17 22  4  0  0  0  0
 22 23  1  0  0  0  0
 23 24  1  0  0  0  0
 24 25  1  0  0  0  0
 25 26  1  0  0  0  0
 25 27  1  0  0  0  0
 25 28  1  0  0  0  0
  9 29  4  0  0  0  0
  3 29  4  0  0  0  0
M  END
> <activity>
30.5

> <InChiKey>
AIMMSOZBPYFASU-UHFFFAOYSA-N

$$$$

  Mrv2220 08292413132D          

 23 24  0  0  0  0            999 V2000
   -0.7145   -3.7125    0.0000 C   0  0  0  0  0  0  0  0  0  0  0  0
    0.0000   -4.1250    0.0000 C   0  0  0  0  0  0  0  0  0  0  0  0
    0.7145   -3.7125    0.0000 C   0  0  0  0  0  0  0  0  0  0  0  0
    1.4289   -4.1250    0.0000 O   0  0  0  0  0  0  0  0  0  0  0  0
    2.1434   -3.7125    0.0000 C   0  0  0  0  0  0  0  0  0  0  0  0
    2.8579   -4.1250    0.0000 C   0  0  0  0  0  0  0  0  0  0  0  0
    2.8579   -4.9500    0.0000 N   0  0  0  0  0  0  0  0  0  0  0  0
    3.5724   -5.3625    0.0000 C   0  0  0  0  0  0  0  0  0  0  0  0
    4.2868   -4.9500    0.0000 C   0  0  0  0  0  0  0  0  0  0  0  0
    5.0013   -5.3625    0.0000 C   0  0  0  0  0  0  0  0  0  0  0  0
    5.0013   -6.1875    0.0000 C   0  0  0  0  0  0  0  0  0  0  0  0
    5.7158   -6.6000    0.0000 Cl  0  0  0  0  0  0  0  0  0  0  0  0
    4.2868   -6.6000    0.0000 C   0  0  0  0  0  0  0  0  0  0  0  0
    3.5724   -6.1875    0.0000 C   0  0  0  0  0  0  0  0  0  0  0  0
    2.8579   -6.6000    0.0000 C   0  0  0  0  0  0  0  0  0  0  0  0
    2.1434   -7.0125    0.0000 F   0  0  0  0  0  0  0  0  0  0  0  0
    2.4454   -5.8855    0.0000 F   0  0  0  0  0  0  0  0  0  0  0  0
    3.2704   -7.3145    0.0000 F   0  0  0  0  0  0  0  0  0  0  0  0
    3.5724   -3.7125    0.0000 N   0  0  0  0  0  0  0  0  0  0  0  0
    3.6586   -2.8920    0.0000 C   0  0  0  0  0  0  0  0  0  0  0  0
    4.4656   -2.7205    0.0000 C   0  0  0  0  0  0  0  0  0  0  0  0
    4.8781   -3.4350    0.0000 N   0  0  0  0  0  0  0  0  0  0  0  0
    4.3260   -4.0481    0.0000 C   0  0  0  0  0  0  0  0  0  0  0  0
  1  2  1  0  0  0  0
  2  3  1  0  0  0  0
  3  4  1  0  0  0  0
  4  5  1  0  0  0  0
  5  6  1  0  0  0  0
  6  7  2  0  0  0  0
  7  8  1  4  0  0  0
  8  9  4  0  0  0  0
  9 10  4  0  0  0  0
 10 11  4  0  0  0  0
 11 12  1  0  0  0  0
 11 13  4  0  0  0  0
 13 14  4  0  0  0  0
  8 14  4  0  0  0  0
 14 15  1  0  0  0  0
 15 16  1  0  0  0  0
 15 17  1  0  0  0  0
 15 18  1  0  0  0  0
  6 19  1  0  0  0  0
 19 20  4  0  0  0  0
 20 21  4  0  0  0  0
 21 22  4  0  0  0  0
 22 23  4  0  0  0  0
 19 23  4  0  0  0  0
M  END
> <activity>
94.9

> <InChiKey>
HSMVPDGQOIQYSR-UHFFFAOYSA-N

$$$$

  Mrv2220 08292413132D          

 23 23  0  0  0  0            999 V2000
    0.7145   -2.0625    0.0000 C   0  0  0  0  0  0  0  0  0  0  0  0
    1.4289   -2.4750    0.0000 C   0  0  0  0  0  0  0  0  0  0  0  0
    1.4289   -3.3000    0.0000 C   0  0  0  0  0  0  0  0  0  0  0  0
    2.1434   -3.7125    0.0000 N   0  0  0  0  0  0  0  0  0  0  0  0
    2.8579   -3.3000    0.0000 C   0  0  0  0  0  0  0  0  0  0  0  0
    2.8579   -2.4750    0.0000 C   0  0  0  0  0  0  0  0  0  0  0  0
    3.5724   -2.0625    0.0000 C   0  0  0  0  0  0  0  0  0  0  0  0
    2.1434   -4.5375    0.0000 C   0  0  0  0  0  0  0  0  0  0  0  0
    2.8579   -4.9500    0.0000 C   0  0  0  0  0  0  0  0  0  0  0  0
    3.5724   -4.5375    0.0000 N   0  3  0  0  0  0  0  0  0  0  0  0
    4.2868   -4.9500    0.0000 O   0  0  0  0  0  0  0  0  0  0  0  0
    3.5724   -3.7125    0.0000 O   0  5  0  0  0  0  0  0  0  0  0  0
    2.8579   -5.7750    0.0000 C   0  0  0  0  0  0  0  0  0  0  0  0
    2.1434   -6.1875    0.0000 C   0  0  0  0  0  0  0  0  0  0  0  0
    2.1434   -7.0125    0.0000 C   0  0  0  0  0  0  0  0  0  0  0  0
    2.1434   -7.8375    0.0000 F   0  0  0  0  0  0  0  0  0  0  0  0
    1.3184   -7.0125    0.0000 F   0  0  0  0  0  0  0  0  0  0  0  0
    2.9684   -7.0125    0.0000 F   0  0  0  0  0  0  0  0  0  0  0  0
    1.4289   -5.7750    0.0000 C   0  0  0  0  0  0  0  0  0  0  0  0
    1.4289   -4.9500    0.0000 C   0  0  0  0  0  0  0  0  0  0  0  0
    0.7145   -4.5375    0.0000 N   0  3  0  0  0  0  0  0  0  0  0  0
    0.7145   -3.7125    0.0000 O   0  0  0  0  0  0  0  0  0  0  0  0
    0.0000   -4.9500    0.0000 O   0  5  0  0  0  0  0  0  0  0  0  0
  1  2  1  0  0  0  0
  2  3  1  0  0  0  0
  3  4  1  0  0  0  0
  4  5  1  0  0  0  0
  5  6  1  0  0  0  0
  6  7  1  0  0  0  0
  4  8  1  0  0  0  0
  8  9  4  0  0  0  0
  9 10  1  0  0  0  0
 10 11  2  0  0  0  0
 10 12  1  0  0  0  0
  9 13  4  0  0  0  0
 13 14  4  0  0  0  0
 14 15  1  0  0  0  0
 15 16  1  0  0  0  0
 15 17  1  0  0  0  0
 15 18  1  0  0  0  0
 14 19  4  0  0  0  0
 19 20  4  0  0  0  0
  8 20  4  0  0  0  0
 20 21  1  0  0  0  0
 21 22  2  0  0  0  0
 21 23  1  0  0  0  0
M  CHG  4  10   1  12  -1  21   1  23  -1
M  END
> <activity>
89.2

> <InChiKey>
ZSDSQXJSNMTJDA-UHFFFAOYSA-N

$$$$

  Mrv2220 08292413132D          

 45 45  0  0  0  0            999 V2000
   -5.0013    7.8375    0.0000 C   0  0  0  0  0  0  0  0  0  0  0  0
   -5.0013    7.0125    0.0000 C   0  0  0  0  0  0  0  0  0  0  0  0
   -5.7158    6.6000    0.0000 C   0  0  0  0  0  0  0  0  0  0  0  0
   -4.2868    6.6000    0.0000 C   0  0  0  0  0  0  0  0  0  0  0  0
   -4.2868    5.7750    0.0000 C   0  0  0  0  0  0  0  0  0  0  0  0
   -3.5724    5.3625    0.0000 C   0  0  0  0  0  0  0  0  0  0  0  0
   -3.5724    4.5375    0.0000 C   0  0  0  0  0  0  0  0  0  0  0  0
   -2.8579    4.1250    0.0000 C   0  0  0  0  0  0  0  0  0  0  0  0
   -2.8579    3.3000    0.0000 C   0  0  0  0  0  0  0  0  0  0  0  0
   -2.1434    2.8875    0.0000 C   0  0  0  0  0  0  0  0  0  0  0  0
   -2.1434    2.0625    0.0000 O   0  0  0  0  0  0  0  0  0  0  0  0
   -1.4289    1.6500    0.0000 C   0  0  0  0  0  0  0  0  0  0  0  0
   -1.4289    0.8250    0.0000 O   0  0  0  0  0  0  0  0  0  0  0  0
   -0.7145    2.0625    0.0000 C   0  0  0  0  0  0  0  0  0  0  0  0
   -0.7145    2.8875    0.0000 C   0  0  0  0  0  0  0  0  0  0  0  0
    0.0000    3.3000    0.0000 C   0  0  0  0  0  0  0  0  0  0  0  0
    0.7145    2.8875    0.0000 C   0  0  0  0  0  0  0  0  0  0  0  0
    1.4289    3.3000    0.0000 C   0  0  0  0  0  0  0  0  0  0  0  0
    2.1434    2.8875    0.0000 O   0  0  0  0  0  0  0  0  0  0  0  0
    1.4289    4.1250    0.0000 O   0  0  0  0  0  0  0  0  0  0  0  0
    0.7145    4.5375    0.0000 C   0  0  0  0  0  0  0  0  0  0  0  0
    0.7145    5.3625    0.0000 C   0  0  0  0  0  0  0  0  0  0  0  0
    0.0000    5.7750    0.0000 C   0  0  0  0  0  0  0  0  0  0  0  0
    0.0000    6.6000    0.0000 C   0  0  0  0  0  0  0  0  0  0  0  0
   -0.7145    7.0125    0.0000 C   0  0  0  0  0  0  0  0  0  0  0  0
   -0.7145    7.8375    0.0000 C   0  0  0  0  0  0  0  0  0  0  0  0
   -1.4289    8.2500    0.0000 C   0  0  0  0  0  0  0  0  0  0  0  0
   -1.4289    9.0750    0.0000 C   0  0  0  0  0  0  0  0  0  0  0  0
   -2.1434    9.4875    0.0000 C   0  0  0  0  0  0  0  0  0  0  0  0
   -0.7145    9.4875    0.0000 C   0  0  0  0  0  0  0  0  0  0  0  0
    0.7145    2.0625    0.0000 C   0  0  0  0  0  0  0  0  0  0  0  0
    1.4289    1.6500    0.0000 C   0  0  0  0  0  0  0  0  0  0  0  0
    1.4289    0.8250    0.0000 O   0  0  0  0  0  0  0  0  0  0  0  0
    2.1434    2.0625    0.0000 O   0  0  0  0  0  0  0  0  0  0  0  0
    2.8579    1.6500    0.0000 C   0  0  0  0  0  0  0  0  0  0  0  0
    3.5724    2.0625    0.0000 C   0  0  0  0  0  0  0  0  0  0  0  0
    4.2868    1.6500    0.0000 C   0  0  0  0  0  0  0  0  0  0  0  0
    5.0013    2.0625    0.0000 C   0  0  0  0  0  0  0  0  0  0  0  0
    5.7158    1.6500    0.0000 C   0  0  0  0  0  0  0  0  0  0  0  0
    6.4302    2.0625    0.0000 C   0  0  0  0  0  0  0  0  0  0  0  0
    7.1447    1.6500    0.0000 C   0  0  0  0  0  0  0  0  0  0  0  0
    7.8592    2.0625    0.0000 C   0  0  0  0  0  0  0  0  0  0  0  0
    7.8592    2.8875    0.0000 C   0  0  0  0  0  0  0  0  0  0  0  0
    8.5737    1.6500    0.0000 C   0  0  0  0  0  0  0  0  0  0  0  0
   -0.0000    1.6500    0.0000 C   0  0  0  0  0  0  0  0  0  0  0  0
  1  2  1  0  0  0  0
  2  3  1  0  0  0  0
  2  4  1  0  0  0  0
  4  5  1  0  0  0  0
  5  6  1  0  0  0  0
  6  7  1  0  0  0  0
  7  8  1  0  0  0  0
  8  9  1  0  0  0  0
  9 10  1  0  0  0  0
 10 11  1  0  0  0  0
 11 12  1  0  0  0  0
 12 13  2  0  0  0  0
 12 14  1  0  0  0  0
 14 15  4  0  0  0  0
 15 16  4  0  0  0  0
 16 17  4  0  0  0  0
 17 18  1  0  0  0  0
 18 19  2  0  0  0  0
 18 20  1  0  0  0  0
 20 21  1  0  0  0  0
 21 22  1  0  0  0  0
 22 23  1  0  0  0  0
 23 24  1  0  0  0  0
 24 25  1  0  0  0  0
 25 26  1  0  0  0  0
 26 27  1  0  0  0  0
 27 28  1  0  0  0  0
 28 29  1  0  0  0  0
 28 30  1  0  0  0  0
 17 31  4  0  0  0  0
 31 32  1  0  0  0  0
 32 33  2  0  0  0  0
 32 34  1  0  0  0  0
 34 35  1  0  0  0  0
 35 36  1  0  0  0  0
 36 37  1  0  0  0  0
 37 38  1  0  0  0  0
 38 39  1  0  0  0  0
 39 40  1  0  0  0  0
 40 41  1  0  0  0  0
 41 42  1  0  0  0  0
 42 43  1  0  0  0  0
 42 44  1  0  0  0  0
 31 45  4  0  0  0  0
 14 45  4  0  0  0  0
M  END
> <activity>
43.0

> <InChiKey>
FJFYFBRNDHRTHL-UHFFFAOYSA-N

$$$$

  Mrv2220 08292413132D          

 42 42  0  0  0  0            999 V2000
    4.2868   -6.6000    0.0000 C   0  0  0  0  0  0  0  0  0  0  0  0
    3.5724   -6.1875    0.0000 C   0  0  0  0  0  0  0  0  0  0  0  0
    2.8579   -6.6000    0.0000 C   0  0  0  0  0  0  0  0  0  0  0  0
    3.5724   -5.3625    0.0000 C   0  0  0  0  0  0  0  0  0  0  0  0
    2.8579   -4.9500    0.0000 C   0  0  0  0  0  0  0  0  0  0  0  0
    2.8579   -4.1250    0.0000 C   0  0  0  0  0  0  0  0  0  0  0  0
    2.1434   -3.7125    0.0000 C   0  0  0  0  0  0  0  0  0  0  0  0
    2.1434   -2.8875    0.0000 C   0  0  0  0  0  0  0  0  0  0  0  0
    1.4289   -2.4750    0.0000 C   0  0  0  0  0  0  0  0  0  0  0  0
    1.4289   -1.6500    0.0000 O   0  0  0  0  0  0  0  0  0  0  0  0
    0.7145   -1.2375    0.0000 C   0  0  0  0  0  0  0  0  0  0  0  0
    0.0000   -1.6500    0.0000 O   0  0  0  0  0  0  0  0  0  0  0  0
    0.7145   -0.4125    0.0000 C   0  0  0  0  0  0  0  0  0  0  0  0
   -0.0000    0.0000    0.0000 C   0  0  0  0  0  0  0  0  0  0  0  0
   -0.0000    0.8250    0.0000 C   0  0  0  0  0  0  0  0  0  0  0  0
    0.7145    1.2375    0.0000 C   0  0  0  0  0  0  0  0  0  0  0  0
    0.7145    2.0625    0.0000 C   0  0  0  0  0  0  0  0  0  0  0  0
    1.4289    2.4750    0.0000 O   0  0  0  0  0  0  0  0  0  0  0  0
    0.0000    2.4750    0.0000 O   0  0  0  0  0  0  0  0  0  0  0  0
    0.0000    3.3000    0.0000 C   0  0  0  0  0  0  0  0  0  0  0  0
   -0.7145    3.7125    0.0000 C   0  0  0  0  0  0  0  0  0  0  0  0
   -0.7145    4.5375    0.0000 C   0  0  0  0  0  0  0  0  0  0  0  0
   -1.4289    4.9500    0.0000 C   0  0  0  0  0  0  0  0  0  0  0  0
   -1.4289    5.7750    0.0000 C   0  0  0  0  0  0  0  0  0  0  0  0
   -2.1434    6.1875    0.0000 C   0  0  0  0  0  0  0  0  0  0  0  0
   -2.1434    7.0125    0.0000 C   0  0  0  0  0  0  0  0  0  0  0  0
   -2.8579    7.4250    0.0000 C   0  0  0  0  0  0  0  0  0  0  0  0
   -1.4289    7.4250    0.0000 C   0  0  0  0  0  0  0  0  0  0  0  0
    1.4289    0.8250    0.0000 C   0  0  0  0  0  0  0  0  0  0  0  0
    2.1434    1.2375    0.0000 C   0  0  0  0  0  0  0  0  0  0  0  0
    2.1434    2.0625    0.0000 O   0  0  0  0  0  0  0  0  0  0  0  0
    2.8579    0.8250    0.0000 O   0  0  0  0  0  0  0  0  0  0  0  0
    3.5724    1.2375    0.0000 C   0  0  0  0  0  0  0  0  0  0  0  0
    4.2868    0.8250    0.0000 C   0  0  0  0  0  0  0  0  0  0  0  0
    5.0013    1.2375    0.0000 C   0  0  0  0  0  0  0  0  0  0  0  0
    5.7158    0.8250    0.0000 C   0  0  0  0  0  0  0  0  0  0  0  0
    6.4302    1.2375    0.0000 C   0  0  0  0  0  0  0  0  0  0  0  0
    7.1447    0.8250    0.0000 C   0  0  0  0  0  0  0  0  0  0  0  0
    7.8592    1.2375    0.0000 C   0  0  0  0  0  0  0  0  0  0  0  0
    7.8592    2.0625    0.0000 C   0  0  0  0  0  0  0  0  0  0  0  0
    8.5737    0.8250    0.0000 C   0  0  0  0  0  0  0  0  0  0  0  0
    1.4289    0.0000    0.0000 C   0  0  0  0  0  0  0  0  0  0  0  0
  1  2  1  0  0  0  0
  2  3  1  0  0  0  0
  2  4  1  0  0  0  0
  4  5  1  0  0  0  0
  5  6  1  0  0  0  0
  6  7  1  0  0  0  0
  7  8  1  0  0  0  0
  8  9  1  0  0  0  0
  9 10  1  0  0  0  0
 10 11  1  0  0  0  0
 11 12  2  0  0  0  0
 11 13  1  0  0  0  0
 13 14  4  0  0  0  0
 14 15  4  0  0  0  0
 15 16  4  0  0  0  0
 16 17  1  0  0  0  0
 17 18  2  0  0  0  0
 17 19  1  0  0  0  0
 19 20  1  0  0  0  0
 20 21  1  0  0  0  0
 21 22  1  0  0  0  0
 22 23  1  0  0  0  0
 23 24  1  0  0  0  0
 24 25  1  0  0  0  0
 25 26  1  0  0  0  0
 26 27  1  0  0  0  0
 26 28  1  0  0  0  0
 16 29  4  0  0  0  0
 29 30  1  0  0  0  0
 30 31  2  0  0  0  0
 30 32  1  0  0  0  0
 32 33  1  0  0  0  0
 33 34  1  0  0  0  0
 34 35  1  0  0  0  0
 35 36  1  0  0  0  0
 36 37  1  0  0  0  0
 37 38  1  0  0  0  0
 38 39  1  0  0  0  0
 39 40  1  0  0  0  0
 39 41  1  0  0  0  0
 29 42  4  0  0  0  0
 13 42  4  0  0  0  0
M  END
> <activity>
3.2

> <InChiKey>
YPDXSCXISVYHOB-UHFFFAOYSA-N

$$$$

  Mrv2220 08292413132D          

 13 13  0  0  0  0            999 V2000
    0.0000    3.3000    0.0000 C   0  0  0  0  0  0  0  0  0  0  0  0
    0.7145    2.8875    0.0000 O   0  0  0  0  0  0  0  0  0  0  0  0
    0.7145    2.0625    0.0000 Si  0  0  0  0  0  0  0  0  0  0  0  0
   -0.1105    2.0625    0.0000 O   0  0  0  0  0  0  0  0  0  0  0  0
   -0.5230    1.3480    0.0000 C   0  0  0  0  0  0  0  0  0  0  0  0
    1.5395    2.0625    0.0000 O   0  0  0  0  0  0  0  0  0  0  0  0
    1.9520    1.3480    0.0000 C   0  0  0  0  0  0  0  0  0  0  0  0
    0.7145    1.2375    0.0000 C   0  0  0  0  0  0  0  0  0  0  0  0
    1.4289    0.8250    0.0000 C   0  0  0  0  0  0  0  0  0  0  0  0
    1.4289   -0.0000    0.0000 C   0  0  0  0  0  0  0  0  0  0  0  0
    0.7145   -0.4125    0.0000 C   0  0  0  0  0  0  0  0  0  0  0  0
    0.0000    0.0000    0.0000 C   0  0  0  0  0  0  0  0  0  0  0  0
    0.0000    0.8250    0.0000 C   0  0  0  0  0  0  0  0  0  0  0  0
  1  2  1  0  0  0  0
  2  3  1  0  0  0  0
  3  4  1  0  0  0  0
  4  5  1  0  0  0  0
  3  6  1  0  0  0  0
  6  7  1  0  0  0  0
  3  8  1  0  0  0  0
  8  9  4  0  0  0  0
  9 10  4  0  0  0  0
 10 11  4  0  0  0  0
 11 12  4  0  0  0  0
 12 13  4  0  0  0  0
  8 13  4  0  0  0  0
M  END
> <activity>
23.4

> <InChiKey>
ZNOCGWVLWPVKAO-UHFFFAOYSA-N

$$$$

  Mrv2220 08292413132D          

 10  9  0  0  0  0            999 V2000
    3.3809    0.3020    0.0000 C   0  0  0  0  0  0  0  0  0  0  0  0
    2.6664    0.7145    0.0000 C   0  0  0  0  0  0  0  0  0  0  0  0
    1.9520    0.3020    0.0000 C   0  0  0  0  0  0  0  0  0  0  0  0
    1.2375    0.7145    0.0000 Si  0  0  0  0  0  0  0  0  0  0  0  0
    0.5230    1.1270    0.0000 O   0  0  0  0  0  0  0  0  0  0  0  0
   -0.1914    0.7145    0.0000 C   0  0  0  0  0  0  0  0  0  0  0  0
    1.6500    1.4289    0.0000 O   0  0  0  0  0  0  0  0  0  0  0  0
    1.2375    2.1434    0.0000 C   0  0  0  0  0  0  0  0  0  0  0  0
    0.8250    0.0000    0.0000 O   0  0  0  0  0  0  0  0  0  0  0  0
    0.0000    0.0000    0.0000 C   0  0  0  0  0  0  0  0  0  0  0  0
  1  2  1  0  0  0  0
  2  3  1  0  0  0  0
  3  4  1  0  0  0  0
  4  5  1  0  0  0  0
  5  6  1  0  0  0  0
  4  7  1  0  0  0  0
  7  8  1  0  0  0  0
  4  9  1  0  0  0  0
  9 10  1  0  0  0  0
M  END
> <activity>
13.5

> <InChiKey>
HQYALQRYBUJWDH-UHFFFAOYSA-N

$$$$

  Mrv2220 08292413132D          

  8  7  0  0  0  0            999 V2000
    2.6664    0.7145    0.0000 C   0  0  0  0  0  0  0  0  0  0  0  0
    1.9520    0.3020    0.0000 O   0  0  0  0  0  0  0  0  0  0  0  0
    1.2375    0.7145    0.0000 P   0  0  0  0  0  0  0  0  0  0  0  0
    1.6500    1.4289    0.0000 O   0  0  0  0  0  0  0  0  0  0  0  0
    0.5230    1.1270    0.0000 O   0  0  0  0  0  0  0  0  0  0  0  0
   -0.1914    0.7145    0.0000 C   0  0  0  0  0  0  0  0  0  0  0  0
    0.8250    0.0000    0.0000 O   0  0  0  0  0  0  0  0  0  0  0  0
    0.0000    0.0000    0.0000 C   0  0  0  0  0  0  0  0  0  0  0  0
  1  2  1  0  0  0  0
  2  3  1  0  0  0  0
  3  4  2  0  0  0  0
  3  5  1  0  0  0  0
  5  6  1  0  0  0  0
  3  7  1  0  0  0  0
  7  8  1  0  0  0  0
M  END
> <activity>
3.9

> <InChiKey>
WVLBCYQITXONBZ-UHFFFAOYSA-N

$$$$

  Mrv2220 08292413132D          

  4  3  0  0  0  0            999 V2000
    1.2375    0.7145    0.0000 C   0  0  0  0  0  0  0  0  0  0  0  0
    0.8250    0.0000    0.0000 N   0  0  0  0  0  0  0  0  0  0  0  0
    1.2375   -0.7145    0.0000 C   0  0  0  0  0  0  0  0  0  0  0  0
    0.0000    0.0000    0.0000 C   0  0  0  0  0  0  0  0  0  0  0  0
  1  2  1  0  0  0  0
  2  3  1  0  0  0  0
  2  4  1  0  0  0  0
M  END
> <activity>
1.6

> <InChiKey>
GETQZCLCWQTVFV-UHFFFAOYSA-N

$$$$

  Mrv2220 08292413132D          

 18 19  0  0  0  0            999 V2000
    3.1599    7.7270    0.0000 C   0  0  0  0  0  0  0  0  0  0  0  0
    3.1599    6.9020    0.0000 C   0  0  0  0  0  0  0  0  0  0  0  0
    2.4454    6.4895    0.0000 O   0  0  0  0  0  0  0  0  0  0  0  0
    2.4454    5.6645    0.0000 C   0  0  0  0  0  0  0  0  0  0  0  0
    3.1599    5.2520    0.0000 O   0  0  0  0  0  0  0  0  0  0  0  0
    1.7309    5.2520    0.0000 C   0  0  0  0  0  0  0  0  0  0  0  0
    1.7309    4.4270    0.0000 C   0  0  0  0  0  0  0  0  0  0  0  0
    1.0164    4.0145    0.0000 C   0  0  0  0  0  0  0  0  0  0  0  0
    1.0164    3.1895    0.0000 O   0  0  0  0  0  0  0  0  0  0  0  0
    0.3020    4.4270    0.0000 C   0  0  0  0  0  0  0  0  0  0  0  0
   -0.4125    4.0145    0.0000 C   0  0  0  0  0  0  0  0  0  0  0  0
   -1.1270    4.4270    0.0000 O   0  0  0  0  0  0  0  0  0  0  0  0
   -0.4125    3.1895    0.0000 C   0  0  0  0  0  0  0  0  0  0  0  0
    0.0000    2.4750    0.0000 C   0  0  0  0  0  0  0  0  0  0  0  0
   -0.8250    2.4750    0.0000 C   0  0  0  0  0  0  0  0  0  0  0  0
    0.3020    5.2520    0.0000 C   0  0  0  0  0  0  0  0  0  0  0  0
   -0.4125    5.6645    0.0000 O   0  0  0  0  0  0  0  0  0  0  0  0
    1.0164    5.6645    0.0000 C   0  0  0  0  0  0  0  0  0  0  0  0
  1  2  1  0  0  0  0
  2  3  1  0  0  0  0
  3  4  1  0  0  0  0
  4  5  2  0  0  0  0
  4  6  1  0  0  0  0
  6  7  1  0  0  0  0
  7  8  1  0  0  0  0
  8  9  2  0  0  0  0
  8 10  1  0  0  0  0
 10 11  2  0  0  0  0
 11 12  1  0  0  0  0
 11 13  1  0  0  0  0
 13 14  1  0  0  0  0
 14 15  1  0  0  0  0
 13 15  1  0  0  0  0
 10 16  1  0  0  0  0
 16 17  2  0  0  0  0
 16 18  1  0  0  0  0
  6 18  1  0  0  0  0
M  END
> <activity>
14.8

> <InChiKey>
RVKCCVTVZORVGD-UHFFFAOYSA-N

$$$$

  Mrv2220 08292413132D          

 23 25  0  0  0  0            999 V2000
    2.3645    0.4125    0.0000 O   0  0  0  0  0  0  0  0  0  0  0  0
    2.7770    1.1270    0.0000 P   0  0  0  0  0  0  0  0  0  0  0  0
    3.4914    0.7145    0.0000 O   0  0  0  0  0  0  0  0  0  0  0  0
    3.4914   -0.1105    0.0000 C   0  0  0  0  0  0  0  0  0  0  0  0
    4.2059   -0.5230    0.0000 C   0  0  0  0  0  0  0  0  0  0  0  0
    4.2059   -1.3480    0.0000 C   0  0  0  0  0  0  0  0  0  0  0  0
    3.4914   -1.7605    0.0000 C   0  0  0  0  0  0  0  0  0  0  0  0
    2.7770   -1.3480    0.0000 C   0  0  0  0  0  0  0  0  0  0  0  0
    2.7770   -0.5230    0.0000 C   0  0  0  0  0  0  0  0  0  0  0  0
    2.0625    1.5395    0.0000 O   0  0  0  0  0  0  0  0  0  0  0  0
    2.0625    2.3645    0.0000 C   0  0  0  0  0  0  0  0  0  0  0  0
    1.3480    2.7770    0.0000 C   0  0  0  0  0  0  0  0  0  0  0  0
    1.3480    3.6020    0.0000 C   0  0  0  0  0  0  0  0  0  0  0  0
    2.0625    4.0145    0.0000 C   0  0  0  0  0  0  0  0  0  0  0  0
    2.7770    3.6020    0.0000 C   0  0  0  0  0  0  0  0  0  0  0  0
    2.7770    2.7770    0.0000 C   0  0  0  0  0  0  0  0  0  0  0  0
    3.1895    1.8414    0.0000 O   0  0  0  0  0  0  0  0  0  0  0  0
    4.0145    1.8414    0.0000 C   0  0  0  0  0  0  0  0  0  0  0  0
    4.4270    2.5559    0.0000 C   0  0  0  0  0  0  0  0  0  0  0  0
    5.2520    2.5559    0.0000 C   0  0  0  0  0  0  0  0  0  0  0  0
    5.6645    1.8414    0.0000 C   0  0  0  0  0  0  0  0  0  0  0  0
    5.2520    1.1270    0.0000 C   0  0  0  0  0  0  0  0  0  0  0  0
    4.4270    1.1270    0.0000 C   0  0  0  0  0  0  0  0  0  0  0  0
  1  2  2  0  0  0  0
  2  3  1  0  0  0  0
  3  4  1  0  0  0  0
  4  5  4  0  0  0  0
  5  6  4  0  0  0  0
  6  7  4  0  0  0  0
  7  8  4  0  0  0  0
  8  9  4  0  0  0  0
  4  9  4  0  0  0  0
  2 10  1  0  0  0  0
 10 11  1  0  0  0  0
 11 12  4  0  0  0  0
 12 13  4  0  0  0  0
 13 14  4  0  0  0  0
 14 15  4  0  0  0  0
 15 16  4  0  0  0  0
 11 16  4  0  0  0  0
  2 17  1  0  0  0  0
 17 18  1  0  0  0  0
 18 19  4  0  0  0  0
 19 20  4  0  0  0  0
 20 21  4  0  0  0  0
 21 22  4  0  0  0  0
 22 23  4  0  0  0  0
 18 23  4  0  0  0  0
M  END
> <activity>
79.5

> <InChiKey>
XZZNDPSIHUTMOC-UHFFFAOYSA-N

$$$$

  Mrv2220 08292413132D          

 22 24  0  0  0  0            999 V2000
    1.4289   -4.1250    0.0000 C   0  0  0  0  0  0  0  0  0  0  0  0
    0.7145   -3.7125    0.0000 C   0  0  0  0  0  0  0  0  0  0  0  0
    0.7145   -2.8875    0.0000 C   0  0  0  0  0  0  0  0  0  0  0  0
    1.4289   -2.4750    0.0000 C   0  0  0  0  0  0  0  0  0  0  0  0
    1.4289   -1.6500    0.0000 O   0  0  0  0  0  0  0  0  0  0  0  0
    2.1434   -1.2375    0.0000 P   0  0  0  0  0  0  0  0  0  0  0  0
    2.1434   -0.4125    0.0000 O   0  0  0  0  0  0  0  0  0  0  0  0
    1.4289    0.0000    0.0000 C   0  0  0  0  0  0  0  0  0  0  0  0
    0.7145   -0.4125    0.0000 C   0  0  0  0  0  0  0  0  0  0  0  0
    0.0000    0.0000    0.0000 C   0  0  0  0  0  0  0  0  0  0  0  0
    0.0000    0.8250    0.0000 C   0  0  0  0  0  0  0  0  0  0  0  0
    0.7145    1.2375    0.0000 C   0  0  0  0  0  0  0  0  0  0  0  0
    1.4289    0.8250    0.0000 C   0  0  0  0  0  0  0  0  0  0  0  0
    2.8579   -1.6500    0.0000 O   0  0  0  0  0  0  0  0  0  0  0  0
    3.5724   -1.2375    0.0000 C   0  0  0  0  0  0  0  0  0  0  0  0
    3.5724   -0.4125    0.0000 C   0  0  0  0  0  0  0  0  0  0  0  0
    4.2868   -0.0000    0.0000 C   0  0  0  0  0  0  0  0  0  0  0  0
    5.0013   -0.4125    0.0000 C   0  0  0  0  0  0  0  0  0  0  0  0
    5.0013   -1.2375    0.0000 C   0  0  0  0  0  0  0  0  0  0  0  0
    4.2868   -1.6500    0.0000 C   0  0  0  0  0  0  0  0  0  0  0  0
    2.1434   -2.8875    0.0000 C   0  0  0  0  0  0  0  0  0  0  0  0
    2.1434   -3.7125    0.0000 C   0  0  0  0  0  0  0  0  0  0  0  0
  1  2  4  0  0  0  0
  2  3  4  0  0  0  0
  3  4  4  0  0  0  0
  4  5  1  0  0  0  0
  5  6  1  0  0  0  0
  6  7  1  0  0  0  0
  7  8  1  0  0  0  0
  8  9  4  0  0  0  0
  9 10  4  0  0  0  0
 10 11  4  0  0  0  0
 11 12  4  0  0  0  0
 12 13  4  0  0  0  0
  8 13  4  0  0  0  0
  6 14  1  0  0  0  0
 14 15  1  0  0  0  0
 15 16  4  0  0  0  0
 16 17  4  0  0  0  0
 17 18  4  0  0  0  0
 18 19  4  0  0  0  0
 19 20  4  0  0  0  0
 15 20  4  0  0  0  0
  4 21  4  0  0  0  0
 21 22  4  0  0  0  0
  1 22  4  0  0  0  0
M  END
> <activity>
26.9

> <InChiKey>
HVLLSGMXQDNUAL-UHFFFAOYSA-N

$$$$

  Mrv2220 08292413132D          

 19 21  0  0  0  0            999 V2000
   -0.7145   -2.8875    0.0000 C   0  0  0  0  0  0  0  0  0  0  0  0
   -1.4289   -2.4750    0.0000 C   0  0  0  0  0  0  0  0  0  0  0  0
   -1.4289   -1.6500    0.0000 C   0  0  0  0  0  0  0  0  0  0  0  0
   -0.7145   -1.2375    0.0000 C   0  0  0  0  0  0  0  0  0  0  0  0
   -0.7145   -0.4125    0.0000 P   0  0  0  0  0  0  0  0  0  0  0  0
    0.0000   -0.0000    0.0000 C   0  0  0  0  0  0  0  0  0  0  0  0
    0.0000    0.8250    0.0000 C   0  0  0  0  0  0  0  0  0  0  0  0
    0.7145    1.2375    0.0000 C   0  0  0  0  0  0  0  0  0  0  0  0
    1.4289    0.8250    0.0000 C   0  0  0  0  0  0  0  0  0  0  0  0
    1.4289   -0.0000    0.0000 C   0  0  0  0  0  0  0  0  0  0  0  0
    0.7145   -0.4125    0.0000 C   0  0  0  0  0  0  0  0  0  0  0  0
   -1.4289   -0.0000    0.0000 C   0  0  0  0  0  0  0  0  0  0  0  0
   -2.1434   -0.4125    0.0000 C   0  0  0  0  0  0  0  0  0  0  0  0
   -2.8579    0.0000    0.0000 C   0  0  0  0  0  0  0  0  0  0  0  0
   -2.8579    0.8250    0.0000 C   0  0  0  0  0  0  0  0  0  0  0  0
   -2.1434    1.2375    0.0000 C   0  0  0  0  0  0  0  0  0  0  0  0
   -1.4289    0.8250    0.0000 C   0  0  0  0  0  0  0  0  0  0  0  0
    0.0000   -1.6500    0.0000 C   0  0  0  0  0  0  0  0  0  0  0  0
    0.0000   -2.4750    0.0000 C   0  0  0  0  0  0  0  0  0  0  0  0
  1  2  4  0  0  0  0
  2  3  4  0  0  0  0
  3  4  4  0  0  0  0
  4  5  1  0  0  0  0
  5  6  1  0  0  0  0
  6  7  4  0  0  0  0
  7  8  4  0  0  0  0
  8  9  4  0  0  0  0
  9 10  4  0  0  0  0
 10 11  4  0  0  0  0
  6 11  4  0  0  0  0
  5 12  1  0  0  0  0
 12 13  4  0  0  0  0
 13 14  4  0  0  0  0
 14 15  4  0  0  0  0
 15 16  4  0  0  0  0
 16 17  4  0  0  0  0
 12 17  4  0  0  0  0
  4 18  4  0  0  0  0
 18 19  4  0  0  0  0
  1 19  4  0  0  0  0
M  END
> <activity>
17.6

> <InChiKey>
RIOQSEWOXXDEQQ-UHFFFAOYSA-N

$$$$

  Mrv2220 08292413132D          

 14 13  0  0  0  0            999 V2000
    4.2355    3.2704    0.0000 C   0  0  0  0  0  0  0  0  0  0  0  0
    4.9500    2.8579    0.0000 O   0  0  0  0  0  0  0  0  0  0  0  0
    5.6645    3.2704    0.0000 C   0  0  0  0  0  0  0  0  0  0  0  0
    5.6645    4.0954    0.0000 C   0  0  0  0  0  0  0  0  0  0  0  0
    6.3789    2.8579    0.0000 C   0  0  0  0  0  0  0  0  0  0  0  0
    7.0934    3.2704    0.0000 O   0  0  0  0  0  0  0  0  0  0  0  0
    7.8079    2.8579    0.0000 C   0  0  0  0  0  0  0  0  0  0  0  0
    7.8079    2.0329    0.0000 C   0  0  0  0  0  0  0  0  0  0  0  0
    8.5224    3.2704    0.0000 C   0  0  0  0  0  0  0  0  0  0  0  0
    9.2368    2.8579    0.0000 O   0  0  0  0  0  0  0  0  0  0  0  0
    9.9513    3.2704    0.0000 C   0  0  0  0  0  0  0  0  0  0  0  0
    9.9513    4.0954    0.0000 C   0  0  0  0  0  0  0  0  0  0  0  0
   10.6658    2.8579    0.0000 C   0  0  0  0  0  0  0  0  0  0  0  0
   11.3802    3.2704    0.0000 O   0  0  0  0  0  0  0  0  0  0  0  0
  1  2  1  0  0  0  0
  2  3  1  0  0  0  0
  3  4  1  0  0  0  0
  3  5  1  0  0  0  0
  5  6  1  0  0  0  0
  6  7  1  0  0  0  0
  7  8  1  0  0  0  0
  7  9  1  0  0  0  0
  9 10  1  0  0  0  0
 10 11  1  0  0  0  0
 11 12  1  0  0  0  0
 11 13  1  0  0  0  0
 13 14  1  0  0  0  0
M  END
> <activity>
96.7

> <InChiKey>
WAEVWDZKMBQDEJ-UHFFFAOYSA-N

$$$$

  Mrv2220 08292413132D          

 20 19  0  0  0  0            999 V2000
    2.8875    2.1434    0.0000 O   0  0  0  0  0  0  0  0  0  0  0  0
    2.4750    1.4289    0.0000 P   0  0  0  0  0  0  0  0  0  0  0  0
    1.7605    1.8414    0.0000 O   0  0  0  0  0  0  0  0  0  0  0  0
    1.7605    2.6664    0.0000 C   0  0  0  0  0  0  0  0  0  0  0  0
    2.4750    3.0789    0.0000 C   0  0  0  0  0  0  0  0  0  0  0  0
    2.4750    3.9039    0.0000 Cl  0  0  0  0  0  0  0  0  0  0  0  0
    1.0461    3.0789    0.0000 C   0  0  0  0  0  0  0  0  0  0  0  0
    1.0461    3.9039    0.0000 Cl  0  0  0  0  0  0  0  0  0  0  0  0
    3.1895    1.0164    0.0000 O   0  0  0  0  0  0  0  0  0  0  0  0
    3.9039    1.4289    0.0000 C   0  0  0  0  0  0  0  0  0  0  0  0
    4.6184    1.0164    0.0000 C   0  0  0  0  0  0  0  0  0  0  0  0
    5.3329    1.4289    0.0000 Cl  0  0  0  0  0  0  0  0  0  0  0  0
    3.9039    2.2539    0.0000 C   0  0  0  0  0  0  0  0  0  0  0  0
    4.6184    2.6664    0.0000 Cl  0  0  0  0  0  0  0  0  0  0  0  0
    2.0625    0.7145    0.0000 O   0  0  0  0  0  0  0  0  0  0  0  0
    1.2375    0.7145    0.0000 C   0  0  0  0  0  0  0  0  0  0  0  0
    0.8250    1.4289    0.0000 C   0  0  0  0  0  0  0  0  0  0  0  0
    1.2375    2.1434    0.0000 Cl  0  0  0  0  0  0  0  0  0  0  0  0
    0.8250    0.0000    0.0000 C   0  0  0  0  0  0  0  0  0  0  0  0
    0.0000    0.0000    0.0000 Cl  0  0  0  0  0  0  0  0  0  0  0  0
  1  2  2  0  0  0  0
  2  3  1  0  0  0  0
  3  4  1  0  0  0  0
  4  5  1  0  0  0  0
  5  6  1  0  0  0  0
  4  7  1  0  0  0  0
  7  8  1  0  0  0  0
  2  9  1  0  0  0  0
  9 10  1  0  0  0  0
 10 11  1  0  0  0  0
 11 12  1  0  0  0  0
 10 13  1  0  0  0  0
 13 14  1  0  0  0  0
  2 15  1  0  0  0  0
 15 16  1  0  0  0  0
 16 17  1  0  0  0  0
 17 18  1  0  0  0  0
 16 19  1  0  0  0  0
 19 20  1  0  0  0  0
M  END
> <activity>
-4.5

> <InChiKey>
ASLWPAWFJZFCKF-UHFFFAOYSA-N

$$$$

  Mrv2220 08292413132D          

 26 25  0  0  0  0            999 V2000
    2.4750   -8.7947    0.0000 C   0  0  0  0  0  0  0  0  0  0  0  0
    2.0625   -8.0802    0.0000 C   0  0  0  0  0  0  0  0  0  0  0  0
    2.4750   -7.3658    0.0000 C   0  0  0  0  0  0  0  0  0  0  0  0
    2.0625   -6.6513    0.0000 C   0  0  0  0  0  0  0  0  0  0  0  0
    2.4750   -5.9368    0.0000 O   0  0  0  0  0  0  0  0  0  0  0  0
    2.0625   -5.2224    0.0000 C   0  0  0  0  0  0  0  0  0  0  0  0
    2.4750   -4.5079    0.0000 C   0  0  0  0  0  0  0  0  0  0  0  0
    2.0625   -3.7934    0.0000 O   0  0  0  0  0  0  0  0  0  0  0  0
    2.4750   -3.0789    0.0000 P   0  0  0  0  0  0  0  0  0  0  0  0
    3.1895   -3.4914    0.0000 O   0  0  0  0  0  0  0  0  0  0  0  0
    2.8875   -2.3645    0.0000 O   0  0  0  0  0  0  0  0  0  0  0  0
    3.7125   -2.3645    0.0000 C   0  0  0  0  0  0  0  0  0  0  0  0
    4.1250   -3.0789    0.0000 C   0  0  0  0  0  0  0  0  0  0  0  0
    4.9500   -3.0789    0.0000 O   0  0  0  0  0  0  0  0  0  0  0  0
    5.3625   -3.7934    0.0000 C   0  0  0  0  0  0  0  0  0  0  0  0
    6.1875   -3.7934    0.0000 C   0  0  0  0  0  0  0  0  0  0  0  0
    6.6000   -4.5079    0.0000 C   0  0  0  0  0  0  0  0  0  0  0  0
    7.4250   -4.5079    0.0000 C   0  0  0  0  0  0  0  0  0  0  0  0
    1.7605   -2.6664    0.0000 O   0  0  0  0  0  0  0  0  0  0  0  0
    1.7605   -1.8414    0.0000 C   0  0  0  0  0  0  0  0  0  0  0  0
    2.4750   -1.4289    0.0000 C   0  0  0  0  0  0  0  0  0  0  0  0
    3.1895   -1.8414    0.0000 O   0  0  0  0  0  0  0  0  0  0  0  0
    3.9039   -1.4289    0.0000 C   0  0  0  0  0  0  0  0  0  0  0  0
    4.6184   -1.8414    0.0000 C   0  0  0  0  0  0  0  0  0  0  0  0
    5.3329   -1.4289    0.0000 C   0  0  0  0  0  0  0  0  0  0  0  0
    6.0474   -1.8414    0.0000 C   0  0  0  0  0  0  0  0  0  0  0  0
  1  2  1  0  0  0  0
  2  3  1  0  0  0  0
  3  4  1  0  0  0  0
  4  5  1  0  0  0  0
  5  6  1  0  0  0  0
  6  7  1  0  0  0  0
  7  8  1  0  0  0  0
  8  9  1  0  0  0  0
  9 10  2  0  0  0  0
  9 11  1  0  0  0  0
 11 12  1  0  0  0  0
 12 13  1  0  0  0  0
 13 14  1  0  0  0  0
 14 15  1  0  0  0  0
 15 16  1  0  0  0  0
 16 17  1  0  0  0  0
 17 18  1  0  0  0  0
  9 19  1  0  0  0  0
 19 20  1  0  0  0  0
 20 21  1  0  0  0  0
 21 22  1  0  0  0  0
 22 23  1  0  0  0  0
 23 24  1  0  0  0  0
 24 25  1  0  0  0  0
 25 26  1  0  0  0  0
M  END
> <activity>
28.5

> <InChiKey>
WTLBZVNBAKMVDP-UHFFFAOYSA-N

$$$$

  Mrv2220 08292413132D          

 14 13  0  0  0  0            999 V2000
   -0.8250    1.4289    0.0000 O   0  0  0  0  0  0  0  0  0  0  0  0
   -0.0000    1.4289    0.0000 P   0  0  0  0  0  0  0  0  0  0  0  0
    0.0000    0.6039    0.0000 O   0  0  0  0  0  0  0  0  0  0  0  0
   -0.7145    0.1914    0.0000 C   0  0  0  0  0  0  0  0  0  0  0  0
   -1.4289    0.6039    0.0000 C   0  0  0  0  0  0  0  0  0  0  0  0
   -2.1434    0.1914    0.0000 Cl  0  0  0  0  0  0  0  0  0  0  0  0
   -0.0000    2.2539    0.0000 O   0  0  0  0  0  0  0  0  0  0  0  0
   -0.7145    2.6664    0.0000 C   0  0  0  0  0  0  0  0  0  0  0  0
   -0.7145    3.4914    0.0000 C   0  0  0  0  0  0  0  0  0  0  0  0
   -1.4289    3.9039    0.0000 Cl  0  0  0  0  0  0  0  0  0  0  0  0
    0.8250    1.4289    0.0000 O   0  0  0  0  0  0  0  0  0  0  0  0
    1.2375    0.7145    0.0000 C   0  0  0  0  0  0  0  0  0  0  0  0
    0.8250    0.0000    0.0000 C   0  0  0  0  0  0  0  0  0  0  0  0
    0.0000    0.0000    0.0000 Cl  0  0  0  0  0  0  0  0  0  0  0  0
  1  2  2  0  0  0  0
  2  3  1  0  0  0  0
  3  4  1  0  0  0  0
  4  5  1  0  0  0  0
  5  6  1  0  0  0  0
  2  7  1  0  0  0  0
  7  8  1  0  0  0  0
  8  9  1  0  0  0  0
  9 10  1  0  0  0  0
  2 11  1  0  0  0  0
 11 12  1  0  0  0  0
 12 13  1  0  0  0  0
 13 14  1  0  0  0  0
M  END
> <activity>
-17.6

> <InChiKey>
HQUQLFOMPYWACS-UHFFFAOYSA-N

$$$$

  Mrv2220 08292413132D          

 13 12  0  0  0  0            999 V2000
    5.3329    5.5539    0.0000 Cl  0  0  0  0  0  0  0  0  0  0  0  0
    4.6184    5.1414    0.0000 C   0  0  0  0  0  0  0  0  0  0  0  0
    4.6184    4.3164    0.0000 C   0  0  0  0  0  0  0  0  0  0  0  0
    3.9039    3.9039    0.0000 O   0  0  0  0  0  0  0  0  0  0  0  0
    3.9039    3.0789    0.0000 P   0  0  0  0  0  0  0  0  0  0  0  0
    3.1895    2.6664    0.0000 O   0  0  0  0  0  0  0  0  0  0  0  0
    3.1895    1.8414    0.0000 C   0  0  0  0  0  0  0  0  0  0  0  0
    2.4750    1.4289    0.0000 C   0  0  0  0  0  0  0  0  0  0  0  0
    2.4750    0.6039    0.0000 Cl  0  0  0  0  0  0  0  0  0  0  0  0
    4.6184    2.6664    0.0000 O   0  0  0  0  0  0  0  0  0  0  0  0
    4.6184    1.8414    0.0000 C   0  0  0  0  0  0  0  0  0  0  0  0
    5.3329    1.4289    0.0000 C   0  0  0  0  0  0  0  0  0  0  0  0
    5.3329    0.6039    0.0000 Cl  0  0  0  0  0  0  0  0  0  0  0  0
  1  2  1  0  0  0  0
  2  3  1  0  0  0  0
  3  4  1  0  0  0  0
  4  5  1  0  0  0  0
  5  6  1  0  0  0  0
  6  7  1  0  0  0  0
  7  8  1  0  0  0  0
  8  9  1  0  0  0  0
  5 10  1  0  0  0  0
 10 11  1  0  0  0  0
 11 12  1  0  0  0  0
 12 13  1  0  0  0  0
M  END
> <activity>
6.1

> <InChiKey>
LUVCTYHBTXSAMX-UHFFFAOYSA-N

$$$$

  Mrv2220 08292413132D          

 17 16  0  0  0  0            999 V2000
    3.9039    2.2539    0.0000 C   0  0  0  0  0  0  0  0  0  0  0  0
    3.9039    1.4289    0.0000 C   0  0  0  0  0  0  0  0  0  0  0  0
    4.6184    1.0164    0.0000 C   0  0  0  0  0  0  0  0  0  0  0  0
    5.3329    1.4289    0.0000 Cl  0  0  0  0  0  0  0  0  0  0  0  0
    3.1895    1.0164    0.0000 O   0  0  0  0  0  0  0  0  0  0  0  0
    2.4750    1.4289    0.0000 P   0  0  0  0  0  0  0  0  0  0  0  0
    2.8875    2.1434    0.0000 O   0  0  0  0  0  0  0  0  0  0  0  0
    1.7605    1.8414    0.0000 O   0  0  0  0  0  0  0  0  0  0  0  0
    1.7605    2.6664    0.0000 C   0  0  0  0  0  0  0  0  0  0  0  0
    1.0461    3.0789    0.0000 C   0  0  0  0  0  0  0  0  0  0  0  0
    2.4750    3.0789    0.0000 C   0  0  0  0  0  0  0  0  0  0  0  0
    2.4750    3.9039    0.0000 Cl  0  0  0  0  0  0  0  0  0  0  0  0
    2.0625    0.7145    0.0000 O   0  0  0  0  0  0  0  0  0  0  0  0
    1.2375    0.7145    0.0000 C   0  0  0  0  0  0  0  0  0  0  0  0
    0.8250    1.4289    0.0000 C   0  0  0  0  0  0  0  0  0  0  0  0
    0.8250    0.0000    0.0000 C   0  0  0  0  0  0  0  0  0  0  0  0
    0.0000    0.0000    0.0000 Cl  0  0  0  0  0  0  0  0  0  0  0  0
  1  2  1  0  0  0  0
  2  3  1  0  0  0  0
  3  4  1  0  0  0  0
  2  5  1  0  0  0  0
  5  6  1  0  0  0  0
  6  7  2  0  0  0  0
  6  8  1  0  0  0  0
  8  9  1  0  0  0  0
  9 10  1  0  0  0  0
  9 11  1  0  0  0  0
 11 12  1  0  0  0  0
  6 13  1  0  0  0  0
 13 14  1  0  0  0  0
 14 15  1  0  0  0  0
 14 16  1  0  0  0  0
 16 17  1  0  0  0  0
M  END
> <activity>
14.5

> <InChiKey>
KVMPUXDNESXNOH-UHFFFAOYSA-N

$$$$

  Mrv2220 08292413132D          

 20 19  0  0  0  0            999 V2000
   -0.6039   -1.6500    0.0000 O   0  0  0  0  0  0  0  0  0  0  0  0
   -0.6039   -0.8250    0.0000 P   0  0  0  0  0  0  0  0  0  0  0  0
    0.2211   -0.8250    0.0000 O   0  0  0  0  0  0  0  0  0  0  0  0
    0.6336   -1.5395    0.0000 C   0  0  0  0  0  0  0  0  0  0  0  0
    1.4586   -1.5395    0.0000 C   0  0  0  0  0  0  0  0  0  0  0  0
    1.8711   -0.8250    0.0000 Br  0  0  0  0  0  0  0  0  0  0  0  0
    1.8711   -2.2539    0.0000 C   0  0  0  0  0  0  0  0  0  0  0  0
    2.6961   -2.2539    0.0000 Br  0  0  0  0  0  0  0  0  0  0  0  0
   -1.4289   -0.8250    0.0000 O   0  0  0  0  0  0  0  0  0  0  0  0
   -1.8414   -0.1105    0.0000 C   0  0  0  0  0  0  0  0  0  0  0  0
   -2.6664   -0.1105    0.0000 C   0  0  0  0  0  0  0  0  0  0  0  0
   -3.0789   -0.8250    0.0000 Br  0  0  0  0  0  0  0  0  0  0  0  0
   -3.0789    0.6039    0.0000 C   0  0  0  0  0  0  0  0  0  0  0  0
   -3.9039    0.6039    0.0000 Br  0  0  0  0  0  0  0  0  0  0  0  0
   -0.6039    0.0000    0.0000 O   0  0  0  0  0  0  0  0  0  0  0  0
    0.1105    0.4125    0.0000 C   0  0  0  0  0  0  0  0  0  0  0  0
    0.8250    0.0000    0.0000 C   0  0  0  0  0  0  0  0  0  0  0  0
    0.8250   -0.8250    0.0000 Br  0  0  0  0  0  0  0  0  0  0  0  0
    1.5395    0.4125    0.0000 C   0  0  0  0  0  0  0  0  0  0  0  0
    2.2539   -0.0000    0.0000 Br  0  0  0  0  0  0  0  0  0  0  0  0
  1  2  2  0  0  0  0
  2  3  1  0  0  0  0
  3  4  1  0  0  0  0
  4  5  1  0  0  0  0
  5  6  1  0  0  0  0
  5  7  1  0  0  0  0
  7  8  1  0  0  0  0
  2  9  1  0  0  0  0
  9 10  1  0  0  0  0
 10 11  1  0  0  0  0
 11 12  1  0  0  0  0
 11 13  1  0  0  0  0
 13 14  1  0  0  0  0
  2 15  1  0  0  0  0
 15 16  1  0  0  0  0
 16 17  1  0  0  0  0
 17 18  1  0  0  0  0
 17 19  1  0  0  0  0
 19 20  1  0  0  0  0
M  END
> <activity>
21.4

> <InChiKey>
PQYJRMFWJJONBO-UHFFFAOYSA-N

$$$$

  Mrv2220 08292413132D          

 21 24  0  0  0  0            999 V2000
    0.7145   -1.2375    0.0000 O   0  0  0  0  0  0  0  0  0  0  0  0
    0.7145   -0.4125    0.0000 C   0  0  0  0  0  0  0  0  0  0  0  0
    0.0000   -0.0000    0.0000 N   0  0  0  0  0  0  0  0  0  0  0  0
   -0.7145   -0.4125    0.0000 C   0  0  0  0  0  0  0  0  0  0  0  0
   -0.7145   -1.2375    0.0000 C   0  0  0  0  0  0  0  0  0  0  0  0
   -0.3020   -1.9520    0.0000 C   0  0  0  0  0  0  0  0  0  0  0  0
   -1.1270   -1.9520    0.0000 O   0  0  0  0  0  0  0  0  0  0  0  0
    0.0000    0.8250    0.0000 C   0  0  0  0  0  0  0  0  0  0  0  0
   -0.7145    1.2375    0.0000 O   0  0  0  0  0  0  0  0  0  0  0  0
    0.7145    1.2375    0.0000 N   0  0  0  0  0  0  0  0  0  0  0  0
    0.7145    2.0625    0.0000 C   0  0  0  0  0  0  0  0  0  0  0  0
    1.4289    2.4750    0.0000 C   0  0  0  0  0  0  0  0  0  0  0  0
    1.8414    3.1895    0.0000 C   0  0  0  0  0  0  0  0  0  0  0  0
    2.2539    2.4750    0.0000 O   0  0  0  0  0  0  0  0  0  0  0  0
    1.4289    0.8250    0.0000 C   0  0  0  0  0  0  0  0  0  0  0  0
    2.1434    1.2375    0.0000 O   0  0  0  0  0  0  0  0  0  0  0  0
    1.4289   -0.0000    0.0000 N   0  0  0  0  0  0  0  0  0  0  0  0
    2.1434   -0.4125    0.0000 C   0  0  0  0  0  0  0  0  0  0  0  0
    2.1434   -1.2375    0.0000 C   0  0  0  0  0  0  0  0  0  0  0  0
    2.5559   -1.9520    0.0000 C   0  0  0  0  0  0  0  0  0  0  0  0
    1.7309   -1.9520    0.0000 O   0  0  0  0  0  0  0  0  0  0  0  0
  1  2  2  0  0  0  0
  2  3  4  0  0  0  0
  3  4  1  0  0  0  0
  4  5  1  0  0  0  0
  5  6  1  0  0  0  0
  6  7  1  0  0  0  0
  5  7  1  0  0  0  0
  3  8  4  0  0  0  0
  8  9  2  0  0  0  0
  8 10  4  0  0  0  0
 10 11  1  0  0  0  0
 11 12  1  0  0  0  0
 12 13  1  0  0  0  0
 13 14  1  0  0  0  0
 12 14  1  0  0  0  0
 10 15  4  0  0  0  0
 15 16  2  0  0  0  0
 15 17  4  0  0  0  0
  2 17  4  0  0  0  0
 17 18  1  0  0  0  0
 18 19  1  0  0  0  0
 19 20  1  0  0  0  0
 20 21  1  0  0  0  0
 19 21  1  0  0  0  0
M  END
> <activity>
6.3

> <InChiKey>
OUPZKGBUJRBPGC-UHFFFAOYSA-N

$$$$

  Mrv2220 08292413132D          

 26 28  0  0  0  0            999 V2000
   -0.6336   -0.7145    0.0000 C   0  0  0  0  0  0  0  0  0  0  0  0
   -0.6336   -1.5395    0.0000 C   0  0  0  0  0  0  0  0  0  0  0  0
    0.0809   -1.9520    0.0000 C   0  0  0  0  0  0  0  0  0  0  0  0
    0.0809   -2.7770    0.0000 C   0  0  0  0  0  0  0  0  0  0  0  0
   -0.6336   -3.1895    0.0000 C   0  0  0  0  0  0  0  0  0  0  0  0
   -0.6336   -4.0145    0.0000 O   0  0  0  0  0  0  0  0  0  0  0  0
    0.0809   -4.4270    0.0000 P   0  0  0  0  0  0  0  0  0  0  0  0
   -0.3316   -5.1414    0.0000 O   0  0  0  0  0  0  0  0  0  0  0  0
    0.7954   -4.8395    0.0000 O   0  0  0  0  0  0  0  0  0  0  0  0
    0.7954   -5.6645    0.0000 C   0  0  0  0  0  0  0  0  0  0  0  0
    1.5099   -6.0770    0.0000 C   0  0  0  0  0  0  0  0  0  0  0  0
    1.5099   -6.9020    0.0000 C   0  0  0  0  0  0  0  0  0  0  0  0
    0.7954   -7.3145    0.0000 C   0  0  0  0  0  0  0  0  0  0  0  0
    0.7954   -8.1395    0.0000 C   0  0  0  0  0  0  0  0  0  0  0  0
    0.0809   -6.9020    0.0000 C   0  0  0  0  0  0  0  0  0  0  0  0
    0.0809   -6.0770    0.0000 C   0  0  0  0  0  0  0  0  0  0  0  0
    0.4934   -3.7125    0.0000 O   0  0  0  0  0  0  0  0  0  0  0  0
    1.3184   -3.7125    0.0000 C   0  0  0  0  0  0  0  0  0  0  0  0
    1.7309   -2.9980    0.0000 C   0  0  0  0  0  0  0  0  0  0  0  0
    2.5559   -2.9980    0.0000 C   0  0  0  0  0  0  0  0  0  0  0  0
    2.9684   -3.7125    0.0000 C   0  0  0  0  0  0  0  0  0  0  0  0
    3.7934   -3.7125    0.0000 C   0  0  0  0  0  0  0  0  0  0  0  0
    2.5559   -4.4270    0.0000 C   0  0  0  0  0  0  0  0  0  0  0  0
    1.7309   -4.4270    0.0000 C   0  0  0  0  0  0  0  0  0  0  0  0
   -1.3480   -2.7770    0.0000 C   0  0  0  0  0  0  0  0  0  0  0  0
   -1.3480   -1.9520    0.0000 C   0  0  0  0  0  0  0  0  0  0  0  0
  1  2  1  0  0  0  0
  2  3  4  0  0  0  0
  3  4  4  0  0  0  0
  4  5  4  0  0  0  0
  5  6  1  0  0  0  0
  6  7  1  0  0  0  0
  7  8  2  0  0  0  0
  7  9  1  0  0  0  0
  9 10  1  0  0  0  0
 10 11  4  0  0  0  0
 11 12  4  0  0  0  0
 12 13  4  0  0  0  0
 13 14  1  0  0  0  0
 13 15  4  0  0  0  0
 15 16  4  0  0  0  0
 10 16  4  0  0  0  0
  7 17  1  0  0  0  0
 17 18  1  0  0  0  0
 18 19  4  0  0  0  0
 19 20  4  0  0  0  0
 20 21  4  0  0  0  0
 21 22  1  0  0  0  0
 21 23  4  0  0  0  0
 23 24  4  0  0  0  0
 18 24  4  0  0  0  0
  5 25  4  0  0  0  0
 25 26  4  0  0  0  0
  2 26  4  0  0  0  0
M  END
> <activity>
63.7

> <InChiKey>
BOSMZFBHAYFUBJ-UHFFFAOYSA-N

$$$$

  Mrv2220 08292413132D          

 22 24  0  0  0  0            999 V2000
    2.5887   -0.6860    0.0000 C   0  0  0  0  0  0  0  0  0  0  0  0
    2.0367   -1.2991    0.0000 C   0  0  0  0  0  0  0  0  0  0  0  0
    1.4847   -0.6860    0.0000 C   0  0  0  0  0  0  0  0  0  0  0  0
    2.7041   -1.7840    0.0000 C   0  0  0  0  0  0  0  0  0  0  0  0
    2.4492   -2.5687    0.0000 C   0  0  0  0  0  0  0  0  0  0  0  0
    1.6242   -2.5687    0.0000 C   0  0  0  0  0  0  0  0  0  0  0  0
    1.1393   -3.2361    0.0000 C   0  0  0  0  0  0  0  0  0  0  0  0
    0.3188   -3.1499    0.0000 C   0  0  0  0  0  0  0  0  0  0  0  0
   -0.1661   -3.8173    0.0000 C   0  0  0  0  0  0  0  0  0  0  0  0
   -0.9866   -3.7311    0.0000 C   0  0  0  0  0  0  0  0  0  0  0  0
   -1.3222   -2.9774    0.0000 C   0  0  0  0  0  0  0  0  0  0  0  0
   -2.1426   -2.8911    0.0000 Cl  0  0  0  0  0  0  0  0  0  0  0  0
   -0.8372   -2.3099    0.0000 C   0  0  0  0  0  0  0  0  0  0  0  0
   -0.0168   -2.3962    0.0000 C   0  0  0  0  0  0  0  0  0  0  0  0
    1.3693   -1.7840    0.0000 C   0  0  0  0  0  0  0  0  0  0  0  0
    0.5605   -1.9471    0.0000 O   0  0  0  0  0  0  0  0  0  0  0  0
    0.8108   -1.1767    0.0000 C   0  0  0  0  0  0  0  0  0  0  0  0
    1.0576   -0.3895    0.0000 N   0  0  0  0  0  0  0  0  0  0  0  0
    0.5657    0.2728    0.0000 C   0  0  0  0  0  0  0  0  0  0  0  0
    1.0436    0.9453    0.0000 N   0  0  0  0  0  0  0  0  0  0  0  0
    1.8308    0.6986    0.0000 C   0  0  0  0  0  0  0  0  0  0  0  0
    1.8395   -0.1264    0.0000 N   0  0  0  0  0  0  0  0  0  0  0  0
  1  2  1  0  0  0  0
  2  3  1  0  0  0  0
  2  4  1  0  0  0  0
  4  5  1  0  0  0  0
  5  6  1  0  0  0  0
  6  7  2  0  0  0  0
  7  8  1  4  0  0  0
  8  9  4  0  0  0  0
  9 10  4  0  0  0  0
 10 11  4  0  0  0  0
 11 12  1  0  0  0  0
 11 13  4  0  0  0  0
 13 14  4  0  0  0  0
  8 14  4  0  0  0  0
  6 15  1  0  0  0  0
  2 15  1  0  0  0  0
 15 16  1  0  0  0  0
 15 17  1  0  0  0  0
 17 18  1  0  0  0  0
 18 19  4  0  0  0  0
 19 20  4  0  0  0  0
 20 21  4  0  0  0  0
 21 22  4  0  0  0  0
 18 22  4  0  0  0  0
M  END
> <activity>
15.9

> <InChiKey>
PPDBOQMNKNNODG-UHFFFAOYSA-N

$$$$

  Mrv2220 08292413132D          

 31 34  0  0  0  0            999 V2000
   -1.4289   -1.6500    0.0000 C   0  0  0  0  0  0  0  0  0  0  0  0
   -0.7145   -1.2375    0.0000 C   0  0  0  0  0  0  0  0  0  0  0  0
    0.0000   -1.6500    0.0000 C   0  0  0  0  0  0  0  0  0  0  0  0
    0.0000   -2.4750    0.0000 C   0  0  0  0  0  0  0  0  0  0  0  0
    0.7145   -1.2375    0.0000 C   0  0  0  0  0  0  0  0  0  0  0  0
    0.7145   -0.4125    0.0000 C   0  0  0  0  0  0  0  0  0  0  0  0
    0.0000   -0.0000    0.0000 C   0  0  0  0  0  0  0  0  0  0  0  0
    0.0000    0.8250    0.0000 C   0  0  0  0  0  0  0  0  0  0  0  0
   -0.7145   -0.4125    0.0000 C   0  0  0  0  0  0  0  0  0  0  0  0
   -1.4289   -0.0000    0.0000 O   0  0  0  0  0  0  0  0  0  0  0  0
    1.4289   -0.0000    0.0000 C   0  0  0  0  0  0  0  0  0  0  0  0
    2.1434   -0.4125    0.0000 C   0  0  0  0  0  0  0  0  0  0  0  0
    2.1434   -1.2375    0.0000 C   0  0  0  0  0  0  0  0  0  0  0  0
    2.9559   -1.0942    0.0000 C   0  0  0  0  0  0  0  0  0  0  0  0
    2.4256   -2.0127    0.0000 C   0  0  0  0  0  0  0  0  0  0  0  0
    3.2380   -2.1560    0.0000 O   0  0  0  0  0  0  0  0  0  0  0  0
    3.5202   -2.9313    0.0000 C   0  0  0  0  0  0  0  0  0  0  0  0
    4.3327   -3.0745    0.0000 C   0  0  0  0  0  0  0  0  0  0  0  0
    4.6148   -3.8498    0.0000 C   0  0  0  0  0  0  0  0  0  0  0  0
    4.0845   -4.4817    0.0000 C   0  0  0  0  0  0  0  0  0  0  0  0
    4.3667   -5.2570    0.0000 C   0  0  0  0  0  0  0  0  0  0  0  0
    3.8364   -5.8890    0.0000 C   0  0  0  0  0  0  0  0  0  0  0  0
    4.0360   -6.6895    0.0000 S   0  0  0  0  0  0  0  0  0  0  0  0
    3.3364   -7.1267    0.0000 C   0  0  0  0  0  0  0  0  0  0  0  0
    3.2788   -7.9496    0.0000 O   0  0  0  0  0  0  0  0  0  0  0  0
    2.7044   -6.5964    0.0000 N   0  0  0  0  0  0  0  0  0  0  0  0
    3.0134   -5.8314    0.0000 C   0  0  0  0  0  0  0  0  0  0  0  0
    2.5762   -5.1318    0.0000 O   0  0  0  0  0  0  0  0  0  0  0  0
    3.2721   -4.3385    0.0000 C   0  0  0  0  0  0  0  0  0  0  0  0
    2.9899   -3.5632    0.0000 C   0  0  0  0  0  0  0  0  0  0  0  0
    1.4289   -1.6500    0.0000 O   0  0  0  0  0  0  0  0  0  0  0  0
  1  2  1  0  0  0  0
  2  3  4  0  0  0  0
  3  4  1  0  0  0  0
  3  5  4  0  0  0  0
  5  6  4  0  0  0  0
  6  7  4  0  0  0  0
  7  8  1  0  0  0  0
  7  9  4  0  0  0  0
  2  9  4  0  0  0  0
  9 10  1  0  0  0  0
  6 11  1  0  0  0  0
 11 12  1  0  0  0  0
 12 13  1  0  0  0  0
 13 14  1  0  0  0  0
 13 15  1  0  0  0  0
 15 16  1  0  0  0  0
 16 17  1  0  0  0  0
 17 18  4  0  0  0  0
 18 19  4  0  0  0  0
 19 20  4  0  0  0  0
 20 21  1  0  0  0  0
 21 22  1  0  0  0  0
 22 23  1  0  0  0  0
 23 24  1  0  0  0  0
 24 25  2  0  0  0  0
 24 26  1  0  0  0  0
 26 27  1  0  0  0  0
 22 27  1  0  0  0  0
 27 28  2  0  0  0  0
 20 29  4  0  0  0  0
 29 30  4  0  0  0  0
 17 30  4  0  0  0  0
 13 31  1  0  0  0  0
  5 31  1  0  0  0  0
M  END
> <activity>
99.0

> <InChiKey>
GXPHKUHSUJUWKP-UHFFFAOYSA-N

$$$$

  Mrv2220 08292413132D          

 29 32  0  0  0  0            999 V2000
    3.3226   -4.0640    0.0000 C   0  0  0  0  0  0  0  0  0  0  0  0
    3.4941   -3.2570    0.0000 O   0  0  0  0  0  0  0  0  0  0  0  0
    2.8810   -2.7050    0.0000 C   0  0  0  0  0  0  0  0  0  0  0  0
    2.0964   -2.9599    0.0000 C   0  0  0  0  0  0  0  0  0  0  0  0
    1.8414   -3.7445    0.0000 N   0  0  0  0  0  0  0  0  0  0  0  0
    1.0164   -3.7445    0.0000 N   0  0  0  0  0  0  0  0  0  0  0  0
    0.7615   -2.9599    0.0000 C   0  0  0  0  0  0  0  0  0  0  0  0
   -0.0231   -2.7050    0.0000 C   0  0  0  0  0  0  0  0  0  0  0  0
   -0.6362   -3.2570    0.0000 C   0  0  0  0  0  0  0  0  0  0  0  0
   -1.4208   -3.0021    0.0000 C   0  0  0  0  0  0  0  0  0  0  0  0
   -1.5924   -2.1951    0.0000 C   0  0  0  0  0  0  0  0  0  0  0  0
   -0.9793   -1.6431    0.0000 N   0  3  0  0  0  0  0  0  0  0  0  0
   -1.1508   -0.8361    0.0000 O   0  5  0  0  0  0  0  0  0  0  0  0
   -0.1946   -1.8980    0.0000 C   0  0  0  0  0  0  0  0  0  0  0  0
    1.4289   -2.4750    0.0000 N   0  0  0  0  0  0  0  0  0  0  0  0
    1.4289   -1.6500    0.0000 C   0  0  0  0  0  0  0  0  0  0  0  0
    0.7145   -1.2375    0.0000 C   0  0  0  0  0  0  0  0  0  0  0  0
    0.0000   -1.6500    0.0000 Cl  0  0  0  0  0  0  0  0  0  0  0  0
    0.7145   -0.4125    0.0000 C   0  0  0  0  0  0  0  0  0  0  0  0
    0.0000    0.0000    0.0000 Cl  0  0  0  0  0  0  0  0  0  0  0  0
    1.4289    0.0000    0.0000 C   0  0  0  0  0  0  0  0  0  0  0  0
    2.1434   -0.4125    0.0000 C   0  0  0  0  0  0  0  0  0  0  0  0
    2.8579    0.0000    0.0000 N   0  0  0  0  0  0  0  0  0  0  0  0
    3.5724   -0.4125    0.0000 C   0  0  0  0  0  0  0  0  0  0  0  0
    4.2868   -0.0000    0.0000 O   0  0  0  0  0  0  0  0  0  0  0  0
    3.5724   -1.2375    0.0000 C   0  0  0  0  0  0  0  0  0  0  0  0
    4.2868   -1.6500    0.0000 O   0  0  0  0  0  0  0  0  0  0  0  0
    2.8579   -1.6500    0.0000 N   0  0  0  0  0  0  0  0  0  0  0  0
    2.1434   -1.2375    0.0000 C   0  0  0  0  0  0  0  0  0  0  0  0
  1  2  1  0  0  0  0
  2  3  1  0  0  0  0
  3  4  1  0  0  0  0
  4  5  4  0  0  0  0
  5  6  4  0  0  0  0
  6  7  4  0  0  0  0
  7  8  1  0  0  0  0
  8  9  4  0  0  0  0
  9 10  4  0  0  0  0
 10 11  4  0  0  0  0
 11 12  4  0  0  0  0
 12 13  1  0  0  0  0
 12 14  4  0  0  0  0
  8 14  4  0  0  0  0
  7 15  4  0  0  0  0
  4 15  4  0  0  0  0
 15 16  1  0  0  0  0
 16 17  4  0  0  0  0
 17 18  1  0  0  0  0
 17 19  4  0  0  0  0
 19 20  1  0  0  0  0
 19 21  4  0  0  0  0
 21 22  4  0  0  0  0
 22 23  4  0  0  0  0
 23 24  4  0  0  0  0
 24 25  2  0  0  0  0
 24 26  4  0  0  0  0
 26 27  2  0  0  0  0
 26 28  4  0  0  0  0
 28 29  4  0  0  0  0
 16 29  4  0  0  0  0
 22 29  4  0  0  0  0
M  CHG  2  12   1  13  -1
M  STY  2   1 DAT   2 DAT
M  SAL   1  1  23
M  SDT   1 MRV_IMPLICIT_H                                        
M  SDD   1     0.6482   -0.4125    DR    ALL  0       0  
M  SED   1 IMPL_H1
M  SAL   2  1  28
M  SDT   2 MRV_IMPLICIT_H                                        
M  SDD   2     0.6482   -0.4125    DR    ALL  0       0  
M  SED   2 IMPL_H1
M  END
> <activity>
-0.8

> <InChiKey>
IEMAQDHGZOPMNI-UHFFFAOYSA-N

$$$$

  Mrv2220 08292413132D          

 40 44  0  0  0  0            999 V2000
    2.0701    3.5854    0.0000 C   0  0  0  0  0  0  0  0  0  0  0  0
    2.7845    3.1729    0.0000 C   0  0  0  0  0  0  0  0  0  0  0  0
    2.7845    2.3479    0.0000 C   0  0  0  0  0  0  0  0  0  0  0  0
    3.4990    1.9354    0.0000 O   0  0  0  0  0  0  0  0  0  0  0  0
    3.4990    1.1104    0.0000 C   0  0  0  0  0  0  0  0  0  0  0  0
    4.2135    0.6979    0.0000 C   0  0  0  0  0  0  0  0  0  0  0  0
    4.2135   -0.1271    0.0000 C   0  0  0  0  0  0  0  0  0  0  0  0
    3.4990   -0.5396    0.0000 C   0  0  0  0  0  0  0  0  0  0  0  0
    3.4990   -1.3646    0.0000 S   0  0  0  0  0  0  0  0  0  0  0  0
    4.3240   -1.3646    0.0000 O   0  0  0  0  0  0  0  0  0  0  0  0
    2.6740   -1.3646    0.0000 O   0  0  0  0  0  0  0  0  0  0  0  0
    3.4990   -2.1896    0.0000 N   0  0  0  0  0  0  0  0  0  0  0  0
    4.2135   -2.6021    0.0000 C   0  0  0  0  0  0  0  0  0  0  0  0
    4.2135   -3.4271    0.0000 C   0  0  0  0  0  0  0  0  0  0  0  0
    3.4990   -3.8396    0.0000 N   0  0  0  0  0  0  0  0  0  0  0  0
    3.4990   -4.6646    0.0000 C   0  0  0  0  0  0  0  0  0  0  0  0
    2.7845   -5.0771    0.0000 C   0  0  0  0  0  0  0  0  0  0  0  0
    2.7845   -3.4271    0.0000 C   0  0  0  0  0  0  0  0  0  0  0  0
    2.7845   -2.6021    0.0000 C   0  0  0  0  0  0  0  0  0  0  0  0
    2.7845   -0.1271    0.0000 C   0  0  0  0  0  0  0  0  0  0  0  0
    2.7845    0.6979    0.0000 C   0  0  0  0  0  0  0  0  0  0  0  0
    2.0701    1.1104    0.0000 C   0  0  0  0  0  0  0  0  0  0  0  0
    1.3556    0.6979    0.0000 N   0  0  0  0  0  0  0  0  0  0  0  0
    0.6411    1.1104    0.0000 C   0  0  0  0  0  0  0  0  0  0  0  0
   -0.1435    0.8555    0.0000 C   0  0  0  0  0  0  0  0  0  0  0  0
   -0.3984    0.0709    0.0000 C   0  0  0  0  0  0  0  0  0  0  0  0
   -1.2054   -0.1006    0.0000 C   0  0  0  0  0  0  0  0  0  0  0  0
   -0.6284    1.5229    0.0000 N   0  0  0  0  0  0  0  0  0  0  0  0
   -1.4534    1.5229    0.0000 C   0  0  0  0  0  0  0  0  0  0  0  0
   -1.8659    2.2374    0.0000 C   0  0  0  0  0  0  0  0  0  0  0  0
   -2.6909    2.2374    0.0000 C   0  0  0  0  0  0  0  0  0  0  0  0
   -3.1034    2.9519    0.0000 C   0  0  0  0  0  0  0  0  0  0  0  0
   -2.6909    3.6664    0.0000 C   0  0  0  0  0  0  0  0  0  0  0  0
   -1.8659    3.6664    0.0000 C   0  0  0  0  0  0  0  0  0  0  0  0
   -1.4534    2.9519    0.0000 N   0  0  0  0  0  0  0  0  0  0  0  0
   -0.1435    2.1904    0.0000 N   0  0  0  0  0  0  0  0  0  0  0  0
    0.6411    1.9354    0.0000 C   0  0  0  0  0  0  0  0  0  0  0  0
    1.3556    2.3479    0.0000 C   0  0  0  0  0  0  0  0  0  0  0  0
    1.3556    3.1729    0.0000 O   0  0  0  0  0  0  0  0  0  0  0  0
    2.0701    1.9354    0.0000 N   0  0  0  0  0  0  0  0  0  0  0  0
  1  2  1  0  0  0  0
  2  3  1  0  0  0  0
  3  4  1  0  0  0  0
  4  5  1  0  0  0  0
  5  6  4  0  0  0  0
  6  7  4  0  0  0  0
  7  8  4  0  0  0  0
  8  9  1  0  0  0  0
  9 10  2  0  0  0  0
  9 11  2  0  0  0  0
  9 12  1  0  0  0  0
 12 13  1  0  0  0  0
 13 14  1  0  0  0  0
 14 15  1  0  0  0  0
 15 16  1  0  0  0  0
 16 17  1  0  0  0  0
 15 18  1  0  0  0  0
 18 19  1  0  0  0  0
 12 19  1  0  0  0  0
  8 20  4  0  0  0  0
 20 21  4  0  0  0  0
  5 21  4  0  0  0  0
 21 22  1  0  0  0  0
 22 23  4  0  0  0  0
 23 24  4  0  0  0  0
 24 25  4  0  0  0  0
 25 26  1  0  0  0  0
 26 27  1  0  0  0  0
 25 28  4  0  0  0  0
 28 29  1  0  0  0  0
 29 30  1  0  0  0  0
 30 31  4  0  0  0  0
 31 32  4  0  0  0  0
 32 33  4  0  0  0  0
 33 34  4  0  0  0  0
 34 35  4  0  0  0  0
 30 35  4  0  0  0  0
 28 36  4  0  0  0  0
 36 37  4  0  0  0  0
 24 37  4  0  0  0  0
 37 38  4  0  0  0  0
 38 39  2  0  0  0  0
 38 40  4  0  0  0  0
 22 40  4  0  0  0  0
M  STY  1   1 DAT
M  SAL   1  1  40
M  SDT   1 MRV_IMPLICIT_H                                        
M  SDD   1     0.5304   -0.4125    DR    ALL  0       0  
M  SED   1 IMPL_H1
M  END
> <activity>
18.8

> <InChiKey>
NIBCDDKWFDEBEP-UHFFFAOYSA-N

$$$$

  Mrv2220 08292413132D          

 24 25  0  0  0  0            999 V2000
    1.4289    0.0000    0.0000 C   0  0  0  0  0  0  0  0  0  0  0  0
    2.1434   -0.4125    0.0000 S   0  0  0  0  0  0  0  0  0  0  0  0
    2.1434   -1.2375    0.0000 C   0  0  0  0  0  0  0  0  0  0  0  0
    2.8579   -1.6500    0.0000 C   0  0  0  0  0  0  0  0  0  0  0  0
    2.8579   -2.4750    0.0000 C   0  0  0  0  0  0  0  0  0  0  0  0
    2.1434   -2.8875    0.0000 C   0  0  0  0  0  0  0  0  0  0  0  0
    2.1434   -3.7125    0.0000 O   0  0  0  0  0  0  0  0  0  0  0  0
    1.4289   -4.1250    0.0000 C   0  0  0  0  0  0  0  0  0  0  0  0
    1.4289   -4.9500    0.0000 C   0  0  0  0  0  0  0  0  0  0  0  0
    0.7145   -5.3625    0.0000 C   0  0  0  0  0  0  0  0  0  0  0  0
   -0.0000   -4.9500    0.0000 C   0  0  0  0  0  0  0  0  0  0  0  0
   -0.7145   -5.3625    0.0000 S   0  0  0  0  0  0  0  0  0  0  0  0
   -1.4289   -5.7750    0.0000 N   0  0  0  0  0  0  0  0  0  0  0  0
   -1.1270   -4.6480    0.0000 O   0  0  0  0  0  0  0  0  0  0  0  0
   -0.3020   -6.0770    0.0000 O   0  0  0  0  0  0  0  0  0  0  0  0
    0.0000   -4.1250    0.0000 C   0  0  0  0  0  0  0  0  0  0  0  0
    0.7145   -3.7125    0.0000 C   0  0  0  0  0  0  0  0  0  0  0  0
    0.7145   -2.8875    0.0000 C   0  0  0  0  0  0  0  0  0  0  0  0
    0.0000   -2.4750    0.0000 N   0  0  0  0  0  0  0  0  0  0  0  0
   -0.7145   -2.8875    0.0000 C   0  0  0  0  0  0  0  0  0  0  0  0
    0.0000   -1.6500    0.0000 C   0  0  0  0  0  0  0  0  0  0  0  0
    1.4289   -2.4750    0.0000 C   0  0  0  0  0  0  0  0  0  0  0  0
    1.4289   -1.6500    0.0000 C   0  0  0  0  0  0  0  0  0  0  0  0
    0.7145   -1.2375    0.0000 C   0  0  0  0  0  0  0  0  0  0  0  0
  1  2  1  0  0  0  0
  2  3  1  0  0  0  0
  3  4  4  0  0  0  0
  4  5  4  0  0  0  0
  5  6  4  0  0  0  0
  6  7  1  0  0  0  0
  7  8  1  0  0  0  0
  8  9  4  0  0  0  0
  9 10  4  0  0  0  0
 10 11  4  0  0  0  0
 11 12  1  0  0  0  0
 12 13  1  0  0  0  0
 12 14  2  0  0  0  0
 12 15  2  0  0  0  0
 11 16  4  0  0  0  0
 16 17  4  0  0  0  0
  8 17  4  0  0  0  0
 17 18  1  0  0  0  0
 18 19  1  0  0  0  0
 19 20  1  0  0  0  0
 19 21  1  0  0  0  0
  6 22  4  0  0  0  0
 22 23  4  0  0  0  0
  3 23  4  0  0  0  0
 23 24  1  0  0  0  0
M  END
> <activity>
15.4

> <InChiKey>
QIWQQMZFTOCFGF-UHFFFAOYSA-N

$$$$

  Mrv2220 08292413132D          

 11 10  0  0  0  0            999 V2000
    4.2355    3.2704    0.0000 C   0  0  0  0  0  0  0  0  0  0  0  0
    4.9500    2.8579    0.0000 C   0  0  0  0  0  0  0  0  0  0  0  0
    5.6645    3.2704    0.0000 C   0  0  0  0  0  0  0  0  0  0  0  0
    6.3789    2.8579    0.0000 C   0  0  0  0  0  0  0  0  0  0  0  0
    7.0934    3.2704    0.0000 C   0  0  0  0  0  0  0  0  0  0  0  0
    7.8079    2.8579    0.0000 C   0  0  0  0  0  0  0  0  0  0  0  0
    8.5224    3.2704    0.0000 C   0  0  0  0  0  0  0  0  0  0  0  0
    9.2368    2.8579    0.0000 C   0  0  0  0  0  0  0  0  0  0  0  0
    9.9513    3.2704    0.0000 C   0  0  0  0  0  0  0  0  0  0  0  0
   10.6658    2.8579    0.0000 C   0  0  0  0  0  0  0  0  0  0  0  0
   11.3802    3.2704    0.0000 C   0  0  0  0  0  0  0  0  0  0  0  0
  1  2  1  0  0  0  0
  2  3  1  0  0  0  0
  3  4  1  0  0  0  0
  4  5  1  0  0  0  0
  5  6  1  0  0  0  0
  6  7  1  0  0  0  0
  7  8  1  0  0  0  0
  8  9  1  0  0  0  0
  9 10  1  0  0  0  0
 10 11  1  0  0  0  0
M  END
> <activity>
4.9

> <InChiKey>
RSJKGSCJYJTIGS-UHFFFAOYSA-N

$$$$

  Mrv2220 08292413132D          

  6  5  0  0  0  0            999 V2000
    1.2375    2.1434    0.0000 C   0  0  0  0  0  0  0  0  0  0  0  0
    0.8250    1.4289    0.0000 C   0  0  0  0  0  0  0  0  0  0  0  0
    1.2375    0.7145    0.0000 O   0  0  0  0  0  0  0  0  0  0  0  0
    0.8250    0.0000    0.0000 C   0  0  0  0  0  0  0  0  0  0  0  0
    1.2375   -0.7145    0.0000 N   0  0  0  0  0  0  0  0  0  0  0  0
    0.0000    0.0000    0.0000 O   0  0  0  0  0  0  0  0  0  0  0  0
  1  2  1  0  0  0  0
  2  3  1  0  0  0  0
  3  4  1  0  0  0  0
  4  5  1  0  0  0  0
  4  6  2  0  0  0  0
M  END
> <activity>
26.9

> <InChiKey>
JOYRKODLDBILNP-UHFFFAOYSA-N

$$$$

  Mrv2220 08292413132D          

  8  8  0  0  0  0            999 V2000
   -0.1467    2.3518    0.0000 C   0  0  0  0  0  0  0  0  0  0  0  0
    0.5678    1.9393    0.0000 C   0  0  0  0  0  0  0  0  0  0  0  0
    0.5678    1.1143    0.0000 N   0  0  0  0  0  0  0  0  0  0  0  0
    1.2352    0.6294    0.0000 C   0  0  0  0  0  0  0  0  0  0  0  0
    0.9803   -0.1553    0.0000 C   0  0  0  0  0  0  0  0  0  0  0  0
    0.1553   -0.1553    0.0000 C   0  0  0  0  0  0  0  0  0  0  0  0
   -0.0997    0.6294    0.0000 C   0  0  0  0  0  0  0  0  0  0  0  0
   -0.8843    0.8843    0.0000 O   0  0  0  0  0  0  0  0  0  0  0  0
  1  2  2  0  0  0  0
  2  3  1  0  0  0  0
  3  4  1  0  0  0  0
  4  5  1  0  0  0  0
  5  6  1  0  0  0  0
  6  7  1  0  0  0  0
  3  7  1  0  0  0  0
  7  8  2  0  0  0  0
M  END
> <activity>
-17.6

> <InChiKey>
WHNWPMSKXPGLAX-UHFFFAOYSA-N

$$$$

  Mrv2220 08292413132D          

 27 29  0  0  0  0            999 V2000
    3.5724   -3.7125    0.0000 C   0  0  0  0  0  0  0  0  0  0  0  0
    2.8579   -4.1250    0.0000 O   0  0  0  0  0  0  0  0  0  0  0  0
    2.8579   -4.9500    0.0000 C   0  0  0  0  0  0  0  0  0  0  0  0
    3.5724   -5.3625    0.0000 C   0  0  0  0  0  0  0  0  0  0  0  0
    3.5724   -6.1875    0.0000 C   0  0  0  0  0  0  0  0  0  0  0  0
    2.8579   -6.6000    0.0000 C   0  0  0  0  0  0  0  0  0  0  0  0
    2.1434   -6.1875    0.0000 C   0  0  0  0  0  0  0  0  0  0  0  0
    1.4289   -6.6000    0.0000 C   0  0  0  0  0  0  0  0  0  0  0  0
    1.4289   -7.4250    0.0000 O   0  0  0  0  0  0  0  0  0  0  0  0
    0.7145   -6.1875    0.0000 C   0  0  0  0  0  0  0  0  0  0  0  0
    0.0000   -6.6000    0.0000 C   0  0  0  0  0  0  0  0  0  0  0  0
   -0.7145   -6.1875    0.0000 C   0  0  0  0  0  0  0  0  0  0  0  0
   -0.7145   -5.3625    0.0000 N   0  0  0  0  0  0  0  0  0  0  0  0
   -1.4289   -4.9500    0.0000 C   0  0  0  0  0  0  0  0  0  0  0  0
   -2.1434   -5.3625    0.0000 C   0  0  0  0  0  0  0  0  0  0  0  0
   -2.8579   -4.9500    0.0000 C   0  0  0  0  0  0  0  0  0  0  0  0
   -3.5724   -5.3625    0.0000 C   0  0  0  0  0  0  0  0  0  0  0  0
   -4.2868   -4.9500    0.0000 C   0  0  0  0  0  0  0  0  0  0  0  0
   -4.2868   -4.1250    0.0000 C   0  0  0  0  0  0  0  0  0  0  0  0
   -5.0013   -3.7125    0.0000 F   0  0  0  0  0  0  0  0  0  0  0  0
   -3.5724   -3.7125    0.0000 C   0  0  0  0  0  0  0  0  0  0  0  0
   -2.8579   -4.1250    0.0000 C   0  0  0  0  0  0  0  0  0  0  0  0
    0.0000   -4.9500    0.0000 C   0  0  0  0  0  0  0  0  0  0  0  0
    0.7145   -5.3625    0.0000 C   0  0  0  0  0  0  0  0  0  0  0  0
    2.1434   -5.3625    0.0000 C   0  0  0  0  0  0  0  0  0  0  0  0
    1.4289   -4.9500    0.0000 O   0  0  0  0  0  0  0  0  0  0  0  0
    1.4289   -4.1250    0.0000 C   0  0  0  0  0  0  0  0  0  0  0  0
  1  2  1  0  0  0  0
  2  3  1  0  0  0  0
  3  4  4  0  0  0  0
  4  5  4  0  0  0  0
  5  6  4  0  0  0  0
  6  7  4  0  0  0  0
  7  8  1  0  0  0  0
  8  9  1  0  0  0  0
  8 10  1  0  0  0  0
 10 11  1  0  0  0  0
 11 12  1  0  0  0  0
 12 13  1  0  0  0  0
 13 14  1  0  0  0  0
 14 15  1  0  0  0  0
 15 16  1  0  0  0  0
 16 17  4  0  0  0  0
 17 18  4  0  0  0  0
 18 19  4  0  0  0  0
 19 20  1  0  0  0  0
 19 21  4  0  0  0  0
 21 22  4  0  0  0  0
 16 22  4  0  0  0  0
 13 23  1  0  0  0  0
 23 24  1  0  0  0  0
 10 24  1  0  0  0  0
  7 25  4  0  0  0  0
  3 25  4  0  0  0  0
 25 26  1  0  0  0  0
 26 27  1  0  0  0  0
M  END
> <activity>
-16.9

> <InChiKey>
HXTGXYRHXAGCFP-UHFFFAOYSA-N

$$$$

  Mrv2220 08292413132D          

 23 25  0  0  0  0            999 V2000
   -0.7145    2.0625    0.0000 C   0  0  0  0  0  0  0  0  0  0  0  0
   -0.7145    1.2375    0.0000 C   0  0  0  0  0  0  0  0  0  0  0  0
   -1.4289    0.8250    0.0000 O   0  0  0  0  0  0  0  0  0  0  0  0
    0.0000    0.8250    0.0000 C   0  0  0  0  0  0  0  0  0  0  0  0
    0.0000   -0.0000    0.0000 C   0  0  0  0  0  0  0  0  0  0  0  0
   -0.7145   -0.4125    0.0000 C   0  0  0  0  0  0  0  0  0  0  0  0
   -0.7145   -1.2375    0.0000 C   0  0  0  0  0  0  0  0  0  0  0  0
   -1.4289   -1.6500    0.0000 C   0  0  0  0  0  0  0  0  0  0  0  0
   -2.1434   -1.2375    0.0000 C   0  0  0  0  0  0  0  0  0  0  0  0
   -2.1434   -0.4125    0.0000 C   0  0  0  0  0  0  0  0  0  0  0  0
   -1.4289   -0.0000    0.0000 C   0  0  0  0  0  0  0  0  0  0  0  0
    0.7145   -0.4125    0.0000 C   0  0  0  0  0  0  0  0  0  0  0  0
    1.4289    0.0000    0.0000 C   0  0  0  0  0  0  0  0  0  0  0  0
    1.4289    0.8250    0.0000 O   0  0  0  0  0  0  0  0  0  0  0  0
    2.1434   -0.4125    0.0000 C   0  0  0  0  0  0  0  0  0  0  0  0
    2.8579    0.0000    0.0000 C   0  0  0  0  0  0  0  0  0  0  0  0
    3.5724   -0.4125    0.0000 C   0  0  0  0  0  0  0  0  0  0  0  0
    3.5724   -1.2375    0.0000 C   0  0  0  0  0  0  0  0  0  0  0  0
    2.8579   -1.6500    0.0000 C   0  0  0  0  0  0  0  0  0  0  0  0
    2.1434   -1.2375    0.0000 C   0  0  0  0  0  0  0  0  0  0  0  0
    1.4289   -1.6500    0.0000 O   0  0  0  0  0  0  0  0  0  0  0  0
    0.7145   -1.2375    0.0000 C   0  0  0  0  0  0  0  0  0  0  0  0
    0.0000   -1.6500    0.0000 O   0  0  0  0  0  0  0  0  0  0  0  0
  1  2  1  0  0  0  0
  2  3  2  0  0  0  0
  2  4  1  0  0  0  0
  4  5  1  0  0  0  0
  5  6  1  0  0  0  0
  6  7  4  0  0  0  0
  7  8  4  0  0  0  0
  8  9  4  0  0  0  0
  9 10  4  0  0  0  0
 10 11  4  0  0  0  0
  6 11  4  0  0  0  0
  5 12  1  0  0  0  0
 12 13  4  0  0  0  0
 13 14  1  0  0  0  0
 13 15  4  0  0  0  0
 15 16  4  0  0  0  0
 16 17  4  0  0  0  0
 17 18  4  0  0  0  0
 18 19  4  0  0  0  0
 19 20  4  0  0  0  0
 15 20  4  0  0  0  0
 20 21  4  0  0  0  0
 21 22  4  0  0  0  0
 12 22  4  0  0  0  0
 22 23  2  0  0  0  0
M  END
> <activity>
93.2

> <InChiKey>
PJVWKTKQMONHTI-UHFFFAOYSA-N

$$$$

  Mrv2220 08292413132D          

 23 24  0  0  0  0            999 V2000
    6.3466    0.2256    0.0000 C   0  0  0  0  0  0  0  0  0  0  0  0
    6.1484   -0.5752    0.0000 C   0  0  0  0  0  0  0  0  0  0  0  0
    6.7429   -1.1472    0.0000 C   0  0  0  0  0  0  0  0  0  0  0  0
    7.5355   -0.9184    0.0000 C   0  0  0  0  0  0  0  0  0  0  0  0
    8.1300   -1.4905    0.0000 C   0  0  0  0  0  0  0  0  0  0  0  0
    7.9318   -2.2913    0.0000 C   0  0  0  0  0  0  0  0  0  0  0  0
    8.5263   -2.8633    0.0000 O   0  0  0  0  0  0  0  0  0  0  0  0
    7.1392   -2.5201    0.0000 C   0  0  0  0  0  0  0  0  0  0  0  0
    6.9411   -3.3210    0.0000 C   0  0  0  0  0  0  0  0  0  0  0  0
    6.1484   -3.5498    0.0000 C   0  0  0  0  0  0  0  0  0  0  0  0
    5.5539   -2.9778    0.0000 C   0  0  0  0  0  0  0  0  0  0  0  0
    4.7613   -3.2066    0.0000 C   0  0  0  0  0  0  0  0  0  0  0  0
    4.1668   -2.6345    0.0000 C   0  0  0  0  0  0  0  0  0  0  0  0
    3.3742   -2.8633    0.0000 C   0  0  0  0  0  0  0  0  0  0  0  0
    2.7797   -2.2913    0.0000 C   0  0  0  0  0  0  0  0  0  0  0  0
    1.9871   -2.5201    0.0000 O   0  0  0  0  0  0  0  0  0  0  0  0
    2.9779   -1.4905    0.0000 C   0  0  0  0  0  0  0  0  0  0  0  0
    3.7705   -1.2617    0.0000 C   0  0  0  0  0  0  0  0  0  0  0  0
    3.9687   -0.4608    0.0000 O   0  0  0  0  0  0  0  0  0  0  0  0
    4.3650   -1.8337    0.0000 C   0  0  0  0  0  0  0  0  0  0  0  0
    5.1576   -1.6049    0.0000 C   0  0  0  0  0  0  0  0  0  0  0  0
    5.7521   -2.1769    0.0000 O   0  0  0  0  0  0  0  0  0  0  0  0
    5.3558   -0.8040    0.0000 O   0  0  0  0  0  0  0  0  0  0  0  0
  1  2  1  0  0  0  0
  2  3  1  0  0  0  0
  3  4  1  0  0  0  0
  4  5  1  0  0  0  0
  5  6  1  0  0  0  0
  6  7  2  0  0  0  0
  6  8  1  0  0  0  0
  8  9  1  0  0  0  0
  9 10  1  0  0  0  0
 11 10  1  4  0  0  0
 11 12  2  0  0  0  0
 12 13  1  0  0  0  0
 13 14  4  0  0  0  0
 14 15  4  0  0  0  0
 15 16  1  0  0  0  0
 15 17  4  0  0  0  0
 17 18  4  0  0  0  0
 18 19  1  0  0  0  0
 18 20  4  0  0  0  0
 13 20  4  0  0  0  0
 20 21  1  0  0  0  0
 21 22  2  0  0  0  0
 21 23  1  0  0  0  0
  2 23  1  0  0  0  0
M  END
> <activity>
28.1

> <InChiKey>
MBMQEIFVQACCCH-UHFFFAOYSA-N

$$$$

  Mrv2220 08292413132D          

 26 28  0  0  0  0            999 V2000
    2.1434   -3.7125    0.0000 O   0  0  0  0  0  0  0  0  0  0  0  0
    2.1434   -2.8875    0.0000 C   0  0  0  0  0  0  0  0  0  0  0  0
    2.8579   -2.4750    0.0000 O   0  0  0  0  0  0  0  0  0  0  0  0
    1.4289   -2.4750    0.0000 C   0  0  0  0  0  0  0  0  0  0  0  0
    1.4289   -1.6500    0.0000 N   0  0  0  0  0  0  0  0  0  0  0  0
    0.7145   -1.2375    0.0000 C   0  0  0  0  0  0  0  0  0  0  0  0
    0.0000   -1.6500    0.0000 O   0  0  0  0  0  0  0  0  0  0  0  0
    0.7145   -0.4125    0.0000 N   0  0  0  0  0  0  0  0  0  0  0  0
    0.0000    0.0000    0.0000 C   0  0  0  0  0  0  0  0  0  0  0  0
    0.0000    0.8250    0.0000 C   0  0  0  0  0  0  0  0  0  0  0  0
    0.7145    1.2375    0.0000 C   0  0  0  0  0  0  0  0  0  0  0  0
    0.7145    2.0625    0.0000 C   0  0  0  0  0  0  0  0  0  0  0  0
    0.0000    2.4750    0.0000 C   0  0  0  0  0  0  0  0  0  0  0  0
    0.0000    3.3000    0.0000 Br  0  0  0  0  0  0  0  0  0  0  0  0
   -0.7145    2.0625    0.0000 C   0  0  0  0  0  0  0  0  0  0  0  0
   -0.7145    1.2375    0.0000 C   0  0  0  0  0  0  0  0  0  0  0  0
   -1.4289    0.8250    0.0000 F   0  0  0  0  0  0  0  0  0  0  0  0
    1.4289    0.0000    0.0000 C   0  0  0  0  0  0  0  0  0  0  0  0
    1.4289    0.8250    0.0000 O   0  0  0  0  0  0  0  0  0  0  0  0
    2.1434   -0.4125    0.0000 C   0  0  0  0  0  0  0  0  0  0  0  0
    2.8579    0.0000    0.0000 C   0  0  0  0  0  0  0  0  0  0  0  0
    3.5724   -0.4125    0.0000 C   0  0  0  0  0  0  0  0  0  0  0  0
    3.5724   -1.2375    0.0000 C   0  0  0  0  0  0  0  0  0  0  0  0
    4.2868   -1.6500    0.0000 Cl  0  0  0  0  0  0  0  0  0  0  0  0
    2.8579   -1.6500    0.0000 C   0  0  0  0  0  0  0  0  0  0  0  0
    2.1434   -1.2375    0.0000 C   0  0  0  0  0  0  0  0  0  0  0  0
  1  2  2  0  0  0  0
  2  3  1  0  0  0  0
  2  4  1  0  0  0  0
  4  5  1  0  0  0  0
  5  6  4  0  0  0  0
  6  7  2  0  0  0  0
  6  8  4  0  0  0  0
  8  9  1  0  0  0  0
  9 10  1  0  0  0  0
 10 11  4  0  0  0  0
 11 12  4  0  0  0  0
 12 13  4  0  0  0  0
 13 14  1  0  0  0  0
 13 15  4  0  0  0  0
 15 16  4  0  0  0  0
 10 16  4  0  0  0  0
 16 17  1  0  0  0  0
  8 18  4  0  0  0  0
 18 19  2  0  0  0  0
 18 20  4  0  0  0  0
 20 21  4  0  0  0  0
 21 22  4  0  0  0  0
 22 23  4  0  0  0  0
 23 24  1  0  0  0  0
 23 25  4  0  0  0  0
 25 26  4  0  0  0  0
 20 26  4  0  0  0  0
  5 26  4  0  0  0  0
M  END
> <activity>
59.0

> <InChiKey>
SXONDGSPUVNZLO-UHFFFAOYSA-N

$$$$

  Mrv2220 08292413132D          

 12 13  0  0  0  0            999 V2000
    0.8838   -2.1500    0.0000 O   0  0  0  0  0  0  0  0  0  0  0  0
    1.1387   -1.3654    0.0000 C   0  0  0  0  0  0  0  0  0  0  0  0
    0.6538   -0.6979    0.0000 N   0  0  0  0  0  0  0  0  0  0  0  0
    1.1387   -0.0305    0.0000 S   0  0  0  0  0  0  0  0  0  0  0  0
    0.4243    0.3820    0.0000 O   0  0  0  0  0  0  0  0  0  0  0  0
    1.4743    0.7232    0.0000 O   0  0  0  0  0  0  0  0  0  0  0  0
    1.9233   -0.2854    0.0000 C   0  0  0  0  0  0  0  0  0  0  0  0
    2.6378    0.1271    0.0000 C   0  0  0  0  0  0  0  0  0  0  0  0
    3.3523   -0.2854    0.0000 C   0  0  0  0  0  0  0  0  0  0  0  0
    3.3523   -1.1104    0.0000 C   0  0  0  0  0  0  0  0  0  0  0  0
    2.6378   -1.5229    0.0000 C   0  0  0  0  0  0  0  0  0  0  0  0
    1.9233   -1.1104    0.0000 C   0  0  0  0  0  0  0  0  0  0  0  0
  1  2  2  0  0  0  0
  2  3  1  0  0  0  0
  3  4  1  0  0  0  0
  4  5  2  0  0  0  0
  4  6  2  0  0  0  0
  4  7  1  0  0  0  0
  7  8  4  0  0  0  0
  8  9  4  0  0  0  0
  9 10  4  0  0  0  0
 10 11  4  0  0  0  0
 11 12  4  0  0  0  0
  7 12  4  0  0  0  0
  2 12  1  0  0  0  0
M  END
> <activity>
39.09582623

> <InChiKey>
CVHZOJJKTDOEJC-UHFFFAOYSA-N

$$$$

  Mrv2220 08292413132D          

 11 11  0  0  0  0            999 V2000
    0.7145    2.0625    0.0000 C   0  0  0  0  0  0  0  0  0  0  0  0
    0.7145    1.2375    0.0000 C   0  0  0  0  0  0  0  0  0  0  0  0
    1.4289    0.8250    0.0000 C   0  0  0  0  0  0  0  0  0  0  0  0
    1.4289   -0.0000    0.0000 C   0  0  0  0  0  0  0  0  0  0  0  0
    0.7145   -0.4125    0.0000 C   0  0  0  0  0  0  0  0  0  0  0  0
    0.7145   -1.2375    0.0000 C   0  0  0  0  0  0  0  0  0  0  0  0
    1.4289   -1.6500    0.0000 C   0  0  0  0  0  0  0  0  0  0  0  0
   -0.0000   -1.6500    0.0000 C   0  0  0  0  0  0  0  0  0  0  0  0
    0.0000    0.0000    0.0000 C   0  0  0  0  0  0  0  0  0  0  0  0
   -0.7145   -0.4125    0.0000 O   0  0  0  0  0  0  0  0  0  0  0  0
    0.0000    0.8250    0.0000 C   0  0  0  0  0  0  0  0  0  0  0  0
  1  2  1  0  0  0  0
  2  3  1  0  0  0  0
  3  4  1  0  0  0  0
  4  5  1  0  0  0  0
  5  6  1  0  0  0  0
  6  7  1  0  0  0  0
  6  8  1  0  0  0  0
  5  9  1  0  0  0  0
  9 10  1  0  0  0  0
  9 11  1  0  0  0  0
  2 11  1  0  0  0  0
M  END
> <activity>
15.128365590000001

> <InChiKey>
NOOLISFMXDJSKH-UHFFFAOYSA-N

$$$$

  Mrv2220 08292413132D          

 25 27  0  0  0  0            999 V2000
   -0.2455   -8.1484    0.0000 C   0  0  0  0  0  0  0  0  0  0  0  0
    0.4690   -7.7359    0.0000 C   0  0  0  0  0  0  0  0  0  0  0  0
    1.1834   -8.1484    0.0000 O   0  0  0  0  0  0  0  0  0  0  0  0
    1.8979   -7.7359    0.0000 C   0  0  0  0  0  0  0  0  0  0  0  0
    1.8979   -6.9109    0.0000 O   0  0  0  0  0  0  0  0  0  0  0  0
    2.6124   -8.1484    0.0000 C   0  0  0  0  0  0  0  0  0  0  0  0
    2.6124   -8.9734    0.0000 C   0  0  0  0  0  0  0  0  0  0  0  0
    3.3269   -7.7359    0.0000 O   0  0  0  0  0  0  0  0  0  0  0  0
    4.0413   -8.1484    0.0000 C   0  0  0  0  0  0  0  0  0  0  0  0
    4.7558   -7.7359    0.0000 C   0  0  0  0  0  0  0  0  0  0  0  0
    5.4703   -8.1484    0.0000 C   0  0  0  0  0  0  0  0  0  0  0  0
    5.4703   -8.9734    0.0000 C   0  0  0  0  0  0  0  0  0  0  0  0
    6.1847   -9.3859    0.0000 O   0  0  0  0  0  0  0  0  0  0  0  0
    6.8992   -8.9734    0.0000 C   0  0  0  0  0  0  0  0  0  0  0  0
    6.9855   -8.1530    0.0000 N   0  0  0  0  0  0  0  0  0  0  0  0
    7.7924   -7.9814    0.0000 C   0  0  0  0  0  0  0  0  0  0  0  0
    8.2049   -7.2670    0.0000 C   0  0  0  0  0  0  0  0  0  0  0  0
    9.0299   -7.2670    0.0000 C   0  0  0  0  0  0  0  0  0  0  0  0
    9.4424   -7.9814    0.0000 C   0  0  0  0  0  0  0  0  0  0  0  0
   10.2674   -7.9814    0.0000 Cl  0  0  0  0  0  0  0  0  0  0  0  0
    9.0299   -8.6959    0.0000 C   0  0  0  0  0  0  0  0  0  0  0  0
    8.2049   -8.6959    0.0000 C   0  0  0  0  0  0  0  0  0  0  0  0
    7.6529   -9.3090    0.0000 O   0  0  0  0  0  0  0  0  0  0  0  0
    4.7558   -9.3859    0.0000 C   0  0  0  0  0  0  0  0  0  0  0  0
    4.0413   -8.9734    0.0000 C   0  0  0  0  0  0  0  0  0  0  0  0
  1  2  1  0  0  0  0
  2  3  1  0  0  0  0
  3  4  1  0  0  0  0
  4  5  2  0  0  0  0
  4  6  1  0  0  0  0
  6  7  1  0  0  0  0
  6  8  1  0  0  0  0
  8  9  1  0  0  0  0
  9 10  4  0  0  0  0
 10 11  4  0  0  0  0
 11 12  4  0  0  0  0
 12 13  1  0  0  0  0
 13 14  1  0  0  0  0
 14 15  4  0  0  0  0
 15 16  4  0  0  0  0
 16 17  4  0  0  0  0
 17 18  4  0  0  0  0
 18 19  4  0  0  0  0
 19 20  1  0  0  0  0
 19 21  4  0  0  0  0
 21 22  4  0  0  0  0
 16 22  4  0  0  0  0
 22 23  4  0  0  0  0
 14 23  4  0  0  0  0
 12 24  4  0  0  0  0
 24 25  4  0  0  0  0
  9 25  4  0  0  0  0
M  END
> <activity>
72.723392385

> <InChiKey>
PQKBPHSEKWERTG-UHFFFAOYSA-N

$$$$

  Mrv2220 08292413132D          

 18 19  0  0  0  0            999 V2000
    2.2295   -0.7827    0.0000 C   0  0  0  0  0  0  0  0  0  0  0  0
    2.9440   -1.1952    0.0000 C   0  0  0  0  0  0  0  0  0  0  0  0
    2.9440   -2.0202    0.0000 C   0  0  0  0  0  0  0  0  0  0  0  0
    2.2295   -2.4327    0.0000 C   0  0  0  0  0  0  0  0  0  0  0  0
    3.6584   -2.4327    0.0000 C   0  0  0  0  0  0  0  0  0  0  0  0
    4.3729   -2.0202    0.0000 C   0  0  0  0  0  0  0  0  0  0  0  0
    4.3729   -1.1952    0.0000 O   0  0  0  0  0  0  0  0  0  0  0  0
    5.0874   -2.4327    0.0000 O   0  0  0  0  0  0  0  0  0  0  0  0
    3.6584   -3.2577    0.0000 N   0  0  0  0  0  0  0  0  0  0  0  0
    4.3259   -3.7426    0.0000 S   0  0  0  0  0  0  0  0  0  0  0  0
    4.0709   -4.5272    0.0000 C   0  0  0  0  0  0  0  0  0  0  0  0
    4.4834   -5.2417    0.0000 C   0  0  0  0  0  0  0  0  0  0  0  0
    4.0709   -5.9562    0.0000 C   0  0  0  0  0  0  0  0  0  0  0  0
    3.2459   -5.9562    0.0000 C   0  0  0  0  0  0  0  0  0  0  0  0
    2.8334   -5.2417    0.0000 C   0  0  0  0  0  0  0  0  0  0  0  0
    3.2459   -4.5272    0.0000 C   0  0  0  0  0  0  0  0  0  0  0  0
    2.9910   -3.7426    0.0000 C   0  0  0  0  0  0  0  0  0  0  0  0
    2.2064   -3.4877    0.0000 O   0  0  0  0  0  0  0  0  0  0  0  0
  1  2  1  0  0  0  0
  2  3  1  0  0  0  0
  3  4  1  0  0  0  0
  3  5  1  0  0  0  0
  5  6  1  0  0  0  0
  6  7  2  0  0  0  0
  6  8  1  0  0  0  0
  5  9  1  0  0  0  0
  9 10  4  0  0  0  0
 10 11  4  0  0  0  0
 11 12  4  0  0  0  0
 12 13  4  0  0  0  0
 13 14  4  0  0  0  0
 14 15  4  0  0  0  0
 15 16  4  0  0  0  0
 11 16  4  0  0  0  0
 16 17  4  0  0  0  0
  9 17  4  0  0  0  0
 17 18  2  0  0  0  0
M  END
> <activity>
13.58586716

> <InChiKey>
FUSYFEXGXRDJNB-UHFFFAOYSA-N

$$$$

  Mrv2220 08292413132D          

 21 20  0  0  0  0            999 V2000
   -4.1467    2.5559    0.0000 C   0  0  0  0  0  0  0  0  0  0  0  0
   -3.4322    2.1434    0.0000 C   0  0  0  0  0  0  0  0  0  0  0  0
   -2.7177    2.5559    0.0000 C   0  0  0  0  0  0  0  0  0  0  0  0
   -2.0033    2.1434    0.0000 C   0  0  0  0  0  0  0  0  0  0  0  0
   -1.2888    2.5559    0.0000 C   0  0  0  0  0  0  0  0  0  0  0  0
   -0.5743    2.1434    0.0000 C   0  0  0  0  0  0  0  0  0  0  0  0
    0.1401    2.5559    0.0000 C   0  0  0  0  0  0  0  0  0  0  0  0
    0.1401    3.3809    0.0000 O   0  0  0  0  0  0  0  0  0  0  0  0
    0.8546    2.1434    0.0000 C   0  0  0  0  0  0  0  0  0  0  0  0
    1.5691    2.5559    0.0000 C   0  0  0  0  0  0  0  0  0  0  0  0
    2.2836    2.1434    0.0000 C   0  0  0  0  0  0  0  0  0  0  0  0
    2.9980    2.5559    0.0000 C   0  0  0  0  0  0  0  0  0  0  0  0
    3.7125    2.1434    0.0000 C   0  0  0  0  0  0  0  0  0  0  0  0
    4.4270    2.5559    0.0000 C   0  0  0  0  0  0  0  0  0  0  0  0
    5.1414    2.1434    0.0000 C   0  0  0  0  0  0  0  0  0  0  0  0
    5.8559    2.5559    0.0000 C   0  0  0  0  0  0  0  0  0  0  0  0
    6.5704    2.1434    0.0000 C   0  0  0  0  0  0  0  0  0  0  0  0
    7.2849    2.5559    0.0000 C   0  0  0  0  0  0  0  0  0  0  0  0
    7.9993    2.1434    0.0000 C   0  0  0  0  0  0  0  0  0  0  0  0
    8.7138    2.5559    0.0000 O   0  0  0  0  0  0  0  0  0  0  0  0
    7.9993    1.3184    0.0000 O   0  0  0  0  0  0  0  0  0  0  0  0
  1  2  1  0  0  0  0
  2  3  1  0  0  0  0
  3  4  1  0  0  0  0
  4  5  1  0  0  0  0
  5  6  1  0  0  0  0
  6  7  1  0  0  0  0
  7  8  1  0  0  0  0
  7  9  1  0  0  0  0
 10  9  1  4  0  0  0
 10 11  2  0  0  0  0
 11 12  1  0  0  0  0
 12 13  1  0  0  0  0
 13 14  1  0  0  0  0
 14 15  1  0  0  0  0
 15 16  1  0  0  0  0
 16 17  1  0  0  0  0
 17 18  1  0  0  0  0
 18 19  1  0  0  0  0
 19 20  2  0  0  0  0
 19 21  1  0  0  0  0
M  END
> <activity>
88.58071115

> <InChiKey>
WBHHMMIMDMUBKC-UHFFFAOYSA-N

$$$$

  Mrv2220 08292413132D          

  4  3  0  0  0  0            999 V2000
    1.2375    0.7145    0.0000 Cl  0  0  0  0  0  0  0  0  0  0  0  0
    0.8250    0.0000    0.0000 C   0  0  0  0  0  0  0  0  0  0  0  0
    0.0000    0.0000    0.0000 C   0  0  0  0  0  0  0  0  0  0  0  0
   -0.4125   -0.7145    0.0000 Cl  0  0  0  0  0  0  0  0  0  0  0  0
  2  1  1  4  0  0  0
  2  3  2  0  0  0  0
  3  4  1  0  0  0  0
M  END
> <activity>
3.066264674

> <InChiKey>
KFUSEUYYWQURPO-UHFFFAOYSA-N

$$$$

  Mrv2220 08292413132D          

 12 12  0  0  0  0            999 V2000
    0.7145    2.0625    0.0000 N   0  0  0  0  0  0  0  0  0  0  0  0
    0.7145    1.2375    0.0000 C   0  0  0  0  0  0  0  0  0  0  0  0
    1.4289    0.8250    0.0000 C   0  0  0  0  0  0  0  0  0  0  0  0
    2.1434    1.2375    0.0000 Cl  0  0  0  0  0  0  0  0  0  0  0  0
    1.4289   -0.0000    0.0000 C   0  0  0  0  0  0  0  0  0  0  0  0
    0.7145   -0.4125    0.0000 C   0  0  0  0  0  0  0  0  0  0  0  0
    0.7145   -1.2375    0.0000 N   0  3  0  0  0  0  0  0  0  0  0  0
    1.4289   -1.6500    0.0000 O   0  0  0  0  0  0  0  0  0  0  0  0
   -0.0000   -1.6500    0.0000 O   0  5  0  0  0  0  0  0  0  0  0  0
    0.0000    0.0000    0.0000 C   0  0  0  0  0  0  0  0  0  0  0  0
    0.0000    0.8250    0.0000 C   0  0  0  0  0  0  0  0  0  0  0  0
   -0.7145    1.2375    0.0000 Cl  0  0  0  0  0  0  0  0  0  0  0  0
  1  2  1  0  0  0  0
  2  3  4  0  0  0  0
  3  4  1  0  0  0  0
  3  5  4  0  0  0  0
  5  6  4  0  0  0  0
  6  7  1  0  0  0  0
  7  8  2  0  0  0  0
  7  9  1  0  0  0  0
  6 10  4  0  0  0  0
 10 11  4  0  0  0  0
  2 11  4  0  0  0  0
 11 12  1  0  0  0  0
M  CHG  2   7   1   9  -1
M  END
> <activity>
99.77857893

> <InChiKey>
BIXZHMJUSMUDOQ-UHFFFAOYSA-N

$$$$

  Mrv2220 08292413132D          

  8  8  0  0  0  0            999 V2000
    0.7145    2.0625    0.0000 F   0  0  0  0  0  0  0  0  0  0  0  0
    0.7145    1.2375    0.0000 C   0  0  0  0  0  0  0  0  0  0  0  0
    1.4289    0.8250    0.0000 C   0  0  0  0  0  0  0  0  0  0  0  0
    1.4289   -0.0000    0.0000 C   0  0  0  0  0  0  0  0  0  0  0  0
    0.7145   -0.4125    0.0000 C   0  0  0  0  0  0  0  0  0  0  0  0
    0.7145   -1.2375    0.0000 Br  0  0  0  0  0  0  0  0  0  0  0  0
    0.0000    0.0000    0.0000 C   0  0  0  0  0  0  0  0  0  0  0  0
    0.0000    0.8250    0.0000 C   0  0  0  0  0  0  0  0  0  0  0  0
  1  2  1  0  0  0  0
  2  3  4  0  0  0  0
  3  4  4  0  0  0  0
  4  5  4  0  0  0  0
  5  6  1  0  0  0  0
  5  7  4  0  0  0  0
  7  8  4  0  0  0  0
  2  8  4  0  0  0  0
M  END
> <activity>
12.76293436

> <InChiKey>
AITNMTXHTIIIBB-UHFFFAOYSA-N

$$$$

  Mrv2220 08292413132D          

 16 15  0  0  0  0            999 V2000
    5.9961    4.2868    0.0000 C   0  0  0  0  0  0  0  0  0  0  0  0
    6.7105    4.6993    0.0000 C   0  0  0  0  0  0  0  0  0  0  0  0
    7.4250    4.2868    0.0000 C   0  0  0  0  0  0  0  0  0  0  0  0
    8.1395    4.6993    0.0000 C   0  0  0  0  0  0  0  0  0  0  0  0
    8.8539    4.2868    0.0000 C   0  0  0  0  0  0  0  0  0  0  0  0
    9.5684    4.6993    0.0000 C   0  0  0  0  0  0  0  0  0  0  0  0
   10.2829    4.2868    0.0000 C   0  0  0  0  0  0  0  0  0  0  0  0
   10.9974    4.6993    0.0000 C   0  0  0  0  0  0  0  0  0  0  0  0
   11.7118    4.2868    0.0000 C   0  0  0  0  0  0  0  0  0  0  0  0
   12.4263    4.6993    0.0000 C   0  0  0  0  0  0  0  0  0  0  0  0
   13.1408    4.2868    0.0000 C   0  0  0  0  0  0  0  0  0  0  0  0
   13.8552    4.6993    0.0000 C   0  0  0  0  0  0  0  0  0  0  0  0
   14.5697    4.2868    0.0000 C   0  0  0  0  0  0  0  0  0  0  0  0
   15.2842    4.6993    0.0000 C   0  0  0  0  0  0  0  0  0  0  0  0
   15.9987    4.2868    0.0000 C   0  0  0  0  0  0  0  0  0  0  0  0
   16.7131    4.6993    0.0000 O   0  0  0  0  0  0  0  0  0  0  0  0
  1  2  1  0  0  0  0
  2  3  1  0  0  0  0
  3  4  1  0  0  0  0
  4  5  1  0  0  0  0
  5  6  1  0  0  0  0
  6  7  1  0  0  0  0
  7  8  1  0  0  0  0
  8  9  1  0  0  0  0
  9 10  1  0  0  0  0
 10 11  1  0  0  0  0
 11 12  1  0  0  0  0
 12 13  1  0  0  0  0
 13 14  1  0  0  0  0
 14 15  1  0  0  0  0
 15 16  1  0  0  0  0
M  END
> <activity>
-12.10962915

> <InChiKey>
REIUXOLGHVXAEO-UHFFFAOYSA-N

$$$$

  Mrv2220 08292413132D          

  9  9  0  0  0  0            999 V2000
    0.0000    3.3000    0.0000 O   0  0  0  0  0  0  0  0  0  0  0  0
    0.0000    2.4750    0.0000 C   0  0  0  0  0  0  0  0  0  0  0  0
    0.7145    2.0625    0.0000 C   0  0  0  0  0  0  0  0  0  0  0  0
    0.7145    1.2375    0.0000 N   0  0  0  0  0  0  0  0  0  0  0  0
    1.4289    0.8250    0.0000 C   0  0  0  0  0  0  0  0  0  0  0  0
    1.4289   -0.0000    0.0000 C   0  0  0  0  0  0  0  0  0  0  0  0
    0.7145   -0.4125    0.0000 N   0  0  0  0  0  0  0  0  0  0  0  0
    0.0000    0.0000    0.0000 C   0  0  0  0  0  0  0  0  0  0  0  0
    0.0000    0.8250    0.0000 C   0  0  0  0  0  0  0  0  0  0  0  0
  1  2  1  0  0  0  0
  2  3  1  0  0  0  0
  3  4  1  0  0  0  0
  4  5  1  0  0  0  0
  5  6  1  0  0  0  0
  6  7  1  0  0  0  0
  7  8  1  0  0  0  0
  8  9  1  0  0  0  0
  4  9  1  0  0  0  0
M  END
> <activity>
6.568734364

> <InChiKey>
WFCSWCVEJLETKA-UHFFFAOYSA-N

$$$$

  Mrv2220 08292413132D          

  4  3  0  0  0  0            999 V2000
    1.2375    0.7145    0.0000 C   0  0  0  0  0  0  0  0  0  0  0  0
    0.8250    0.0000    0.0000 N   0  0  0  0  0  0  0  0  0  0  0  0
    1.2375   -0.7145    0.0000 C   0  0  0  0  0  0  0  0  0  0  0  0
    0.0000    0.0000    0.0000 N   0  0  0  0  0  0  0  0  0  0  0  0
  1  2  1  0  0  0  0
  2  3  1  0  0  0  0
  2  4  1  0  0  0  0
M  END
> <activity>
17.1907829

> <InChiKey>
RHUYHJGZWVXEHW-UHFFFAOYSA-N

$$$$

  Mrv2220 08292413132D          

  8  8  0  0  0  0            999 V2000
    1.2448    1.8695    0.0000 C   0  0  0  0  0  0  0  0  0  0  0  0
    0.7145    1.2375    0.0000 N   0  3  0  0  0  0  0  0  0  0  0  0
    0.1842    1.8695    0.0000 C   0  0  0  0  0  0  0  0  0  0  0  0
    1.4289    0.8250    0.0000 C   0  0  0  0  0  0  0  0  0  0  0  0
    1.4289   -0.0000    0.0000 C   0  0  0  0  0  0  0  0  0  0  0  0
    0.7145   -0.4125    0.0000 C   0  0  0  0  0  0  0  0  0  0  0  0
    0.0000    0.0000    0.0000 C   0  0  0  0  0  0  0  0  0  0  0  0
    0.0000    0.8250    0.0000 C   0  0  0  0  0  0  0  0  0  0  0  0
  1  2  1  0  0  0  0
  2  3  1  0  0  0  0
  2  4  1  0  0  0  0
  4  5  1  0  0  0  0
  5  6  1  0  0  0  0
  6  7  1  0  0  0  0
  7  8  1  0  0  0  0
  2  8  1  0  0  0  0
M  CHG  1   2   1
M  END
> <activity>
27.50852547

> <InChiKey>
NNCAWEWCFVZOGF-UHFFFAOYSA-N

$$$$

  Mrv2220 08292413132D          

  6  5  0  0  0  0            999 V2000
    2.4750   -1.4289    0.0000 Cl  0  0  0  0  0  0  0  0  0  0  0  0
    2.0625   -0.7145    0.0000 C   0  0  0  0  0  0  0  0  0  0  0  0
    1.2375   -0.7145    0.0000 C   0  0  0  0  0  0  0  0  0  0  0  0
    0.8250   -1.4289    0.0000 Cl  0  0  0  0  0  0  0  0  0  0  0  0
    0.8250    0.0000    0.0000 C   0  0  0  0  0  0  0  0  0  0  0  0
    0.0000    0.0000    0.0000 Cl  0  0  0  0  0  0  0  0  0  0  0  0
  1  2  1  0  0  0  0
  2  3  1  0  0  0  0
  3  4  1  0  0  0  0
  3  5  1  0  0  0  0
  5  6  1  0  0  0  0
M  END
> <activity>
10.70079458

> <InChiKey>
CFXQEHVMCRXUSD-UHFFFAOYSA-N

$$$$

  Mrv2220 08292413132D          

 10 10  0  0  0  0            999 V2000
    1.4289    2.4750    0.0000 N   0  0  0  0  0  0  0  0  0  0  0  0
    0.7145    2.0625    0.0000 C   0  0  0  0  0  0  0  0  0  0  0  0
    0.7145    1.2375    0.0000 C   0  0  0  0  0  0  0  0  0  0  0  0
    1.4289    0.8250    0.0000 C   0  0  0  0  0  0  0  0  0  0  0  0
    1.4289   -0.0000    0.0000 C   0  0  0  0  0  0  0  0  0  0  0  0
    0.7145   -0.4125    0.0000 C   0  0  0  0  0  0  0  0  0  0  0  0
    0.0000    0.0000    0.0000 C   0  0  0  0  0  0  0  0  0  0  0  0
   -0.7145   -0.4125    0.0000 C   0  0  0  0  0  0  0  0  0  0  0  0
   -0.7145   -1.2375    0.0000 N   0  0  0  0  0  0  0  0  0  0  0  0
    0.0000    0.8250    0.0000 C   0  0  0  0  0  0  0  0  0  0  0  0
  1  2  1  0  0  0  0
  2  3  1  0  0  0  0
  3  4  4  0  0  0  0
  4  5  4  0  0  0  0
  5  6  4  0  0  0  0
  6  7  4  0  0  0  0
  7  8  1  0  0  0  0
  8  9  1  0  0  0  0
  7 10  4  0  0  0  0
  3 10  4  0  0  0  0
M  END
> <activity>
-4.52199394

> <InChiKey>
FDLQZKYLHJJBHD-UHFFFAOYSA-N

$$$$

  Mrv2220 08292413132D          

  6  5  0  0  0  0            999 V2000
    0.8250   -1.4289    0.0000 O   0  0  0  0  0  0  0  0  0  0  0  0
    1.2375   -0.7145    0.0000 C   0  0  0  0  0  0  0  0  0  0  0  0
    2.0625   -0.7145    0.0000 C   0  0  0  0  0  0  0  0  0  0  0  0
    2.4750   -1.4289    0.0000 Cl  0  0  0  0  0  0  0  0  0  0  0  0
    0.8250    0.0000    0.0000 C   0  0  0  0  0  0  0  0  0  0  0  0
    0.0000    0.0000    0.0000 Cl  0  0  0  0  0  0  0  0  0  0  0  0
  1  2  1  0  0  0  0
  2  3  1  0  0  0  0
  3  4  1  0  0  0  0
  2  5  1  0  0  0  0
  5  6  1  0  0  0  0
M  END
> <activity>
1.731827396

> <InChiKey>
DEWLEGDTCGBNGU-UHFFFAOYSA-N

$$$$

  Mrv2220 08292413132D          

 12 12  0  0  0  0            999 V2000
    1.4289    2.4750    0.0000 C   0  0  0  0  0  0  0  0  0  0  0  0
    0.7145    2.0625    0.0000 C   0  0  0  0  0  0  0  0  0  0  0  0
    0.0000    2.4750    0.0000 C   0  0  0  0  0  0  0  0  0  0  0  0
    0.7145    1.2375    0.0000 C   0  0  0  0  0  0  0  0  0  0  0  0
    1.4289    0.8250    0.0000 C   0  0  0  0  0  0  0  0  0  0  0  0
    1.4289   -0.0000    0.0000 C   0  0  0  0  0  0  0  0  0  0  0  0
    0.7145   -0.4125    0.0000 C   0  0  0  0  0  0  0  0  0  0  0  0
    0.0000    0.0000    0.0000 C   0  0  0  0  0  0  0  0  0  0  0  0
   -0.7145   -0.4125    0.0000 C   0  0  0  0  0  0  0  0  0  0  0  0
   -0.7145   -1.2375    0.0000 C   0  0  0  0  0  0  0  0  0  0  0  0
   -1.4289    0.0000    0.0000 C   0  0  0  0  0  0  0  0  0  0  0  0
    0.0000    0.8250    0.0000 C   0  0  0  0  0  0  0  0  0  0  0  0
  1  2  1  0  0  0  0
  2  3  1  0  0  0  0
  2  4  1  0  0  0  0
  4  5  4  0  0  0  0
  5  6  4  0  0  0  0
  6  7  4  0  0  0  0
  7  8  4  0  0  0  0
  8  9  1  0  0  0  0
  9 10  1  0  0  0  0
  9 11  1  0  0  0  0
  8 12  4  0  0  0  0
  4 12  4  0  0  0  0
M  END
> <activity>
21.53852357

> <InChiKey>
UNEATYXSUBPPKP-UHFFFAOYSA-N

$$$$

  Mrv2220 08292413132D          

  8  7  0  0  0  0            999 V2000
    3.9039    0.6039    0.0000 O   0  0  0  0  0  0  0  0  0  0  0  0
    3.9039    1.4289    0.0000 C   0  0  0  0  0  0  0  0  0  0  0  0
    3.1895    1.8414    0.0000 N   0  0  0  0  0  0  0  0  0  0  0  0
    2.4750    1.4289    0.0000 C   0  0  0  0  0  0  0  0  0  0  0  0
    1.7605    1.8414    0.0000 O   0  0  0  0  0  0  0  0  0  0  0  0
    4.6184    1.8414    0.0000 N   0  0  0  0  0  0  0  0  0  0  0  0
    5.3329    1.4289    0.0000 C   0  0  0  0  0  0  0  0  0  0  0  0
    6.0474    1.8414    0.0000 O   0  0  0  0  0  0  0  0  0  0  0  0
  1  2  2  0  0  0  0
  2  3  1  0  0  0  0
  3  4  1  0  0  0  0
  4  5  1  0  0  0  0
  2  6  1  0  0  0  0
  6  7  1  0  0  0  0
  7  8  1  0  0  0  0
M  END
> <activity>
13.3282559

> <InChiKey>
QUBQYFYWUJJAAK-UHFFFAOYSA-N

$$$$

  Mrv2220 08292413132D          

 12 11  0  0  0  0            999 V2000
    2.2836    2.1434    0.0000 C   0  0  0  0  0  0  0  0  0  0  0  0
    2.9980    2.5559    0.0000 C   0  0  0  0  0  0  0  0  0  0  0  0
    3.7125    2.1434    0.0000 C   0  0  0  0  0  0  0  0  0  0  0  0
    4.4270    2.5559    0.0000 C   0  0  0  0  0  0  0  0  0  0  0  0
    5.1414    2.1434    0.0000 C   0  0  0  0  0  0  0  0  0  0  0  0
    5.1414    1.3184    0.0000 C   0  0  0  0  0  0  0  0  0  0  0  0
    5.8559    0.9059    0.0000 C   0  0  0  0  0  0  0  0  0  0  0  0
    5.8559    2.5559    0.0000 C   0  0  0  0  0  0  0  0  0  0  0  0
    6.5704    2.1434    0.0000 O   0  0  0  0  0  0  0  0  0  0  0  0
    7.2849    2.5559    0.0000 C   0  0  0  0  0  0  0  0  0  0  0  0
    7.9993    2.1434    0.0000 C   0  0  0  0  0  0  0  0  0  0  0  0
    8.7138    2.5559    0.0000 O   0  0  0  0  0  0  0  0  0  0  0  0
  1  2  1  0  0  0  0
  2  3  1  0  0  0  0
  3  4  1  0  0  0  0
  4  5  1  0  0  0  0
  5  6  1  0  0  0  0
  6  7  1  0  0  0  0
  5  8  1  0  0  0  0
  8  9  1  0  0  0  0
  9 10  1  0  0  0  0
 10 11  1  0  0  0  0
 11 12  1  0  0  0  0
M  END
> <activity>
27.39115415

> <InChiKey>
OHJYHAOODFPJOD-UHFFFAOYSA-N

$$$$

  Mrv2220 08292413132D          

 15 15  0  0  0  0            999 V2000
   -0.7145    2.0625    0.0000 C   0  0  0  0  0  0  0  0  0  0  0  0
    0.0000    2.4750    0.0000 C   0  0  0  0  0  0  0  0  0  0  0  0
    0.0000    3.3000    0.0000 C   0  0  0  0  0  0  0  0  0  0  0  0
   -0.7145    3.7125    0.0000 O   0  0  0  0  0  0  0  0  0  0  0  0
    0.7145    2.0625    0.0000 C   0  0  0  0  0  0  0  0  0  0  0  0
    0.7145    1.2375    0.0000 C   0  0  0  0  0  0  0  0  0  0  0  0
    1.4289    0.8250    0.0000 C   0  0  0  0  0  0  0  0  0  0  0  0
    1.4289   -0.0000    0.0000 C   0  0  0  0  0  0  0  0  0  0  0  0
    0.7145   -0.4125    0.0000 C   0  0  0  0  0  0  0  0  0  0  0  0
    0.7145   -1.2375    0.0000 C   0  0  0  0  0  0  0  0  0  0  0  0
    0.7145   -2.0625    0.0000 C   0  0  0  0  0  0  0  0  0  0  0  0
   -0.1105   -1.2375    0.0000 C   0  0  0  0  0  0  0  0  0  0  0  0
    1.5395   -1.2375    0.0000 C   0  0  0  0  0  0  0  0  0  0  0  0
    0.0000    0.0000    0.0000 C   0  0  0  0  0  0  0  0  0  0  0  0
    0.0000    0.8250    0.0000 C   0  0  0  0  0  0  0  0  0  0  0  0
  1  2  1  0  0  0  0
  2  3  1  0  0  0  0
  3  4  2  0  0  0  0
  2  5  1  0  0  0  0
  5  6  1  0  0  0  0
  6  7  4  0  0  0  0
  7  8  4  0  0  0  0
  8  9  4  0  0  0  0
  9 10  1  0  0  0  0
 10 11  1  0  0  0  0
 10 12  1  0  0  0  0
 10 13  1  0  0  0  0
  9 14  4  0  0  0  0
 14 15  4  0  0  0  0
  6 15  4  0  0  0  0
M  END
> <activity>
78.93843029

> <InChiKey>
SDQFDHOLCGWZPU-UHFFFAOYSA-N

$$$$

  Mrv2220 08292413132D          

 10  9  0  0  0  0            999 V2000
    2.6664    0.7145    0.0000 O   0  0  0  0  0  0  0  0  0  0  0  0
    1.9520    0.3020    0.0000 N   0  3  0  0  0  0  0  0  0  0  0  0
    1.9520   -0.5230    0.0000 O   0  5  0  0  0  0  0  0  0  0  0  0
    1.2375    0.7145    0.0000 C   0  0  0  0  0  0  0  0  0  0  0  0
    0.5230    1.1270    0.0000 C   0  0  0  0  0  0  0  0  0  0  0  0
   -0.1914    0.7145    0.0000 O   0  0  0  0  0  0  0  0  0  0  0  0
    1.6500    1.4289    0.0000 C   0  0  0  0  0  0  0  0  0  0  0  0
    1.2375    2.1434    0.0000 O   0  0  0  0  0  0  0  0  0  0  0  0
    0.8250    0.0000    0.0000 C   0  0  0  0  0  0  0  0  0  0  0  0
    0.0000    0.0000    0.0000 O   0  0  0  0  0  0  0  0  0  0  0  0
  1  2  2  0  0  0  0
  2  3  1  0  0  0  0
  2  4  1  0  0  0  0
  4  5  1  0  0  0  0
  5  6  1  0  0  0  0
  4  7  1  0  0  0  0
  7  8  1  0  0  0  0
  4  9  1  0  0  0  0
  9 10  1  0  0  0  0
M  CHG  2   2   1   3  -1
M  END
> <activity>
11.44086022

> <InChiKey>
OLQJQHSAWMFDJE-UHFFFAOYSA-N

$$$$

  Mrv2220 08292413132D          

 14 15  0  0  0  0            999 V2000
    1.9275   -3.5596    0.0000 N   0  0  0  0  0  0  0  0  0  0  0  0
    2.6420   -3.1471    0.0000 C   0  0  0  0  0  0  0  0  0  0  0  0
    3.3565   -2.7346    0.0000 S   0  0  0  0  0  0  0  0  0  0  0  0
    4.0709   -3.1471    0.0000 C   0  0  0  0  0  0  0  0  0  0  0  0
    4.7854   -2.7346    0.0000 S   0  0  0  0  0  0  0  0  0  0  0  0
    5.4999   -3.1471    0.0000 C   0  0  0  0  0  0  0  0  0  0  0  0
    6.2536   -2.8116    0.0000 N   0  0  0  0  0  0  0  0  0  0  0  0
    6.8056   -3.4247    0.0000 C   0  0  0  0  0  0  0  0  0  0  0  0
    7.6306   -3.4247    0.0000 C   0  0  0  0  0  0  0  0  0  0  0  0
    8.0431   -4.1392    0.0000 C   0  0  0  0  0  0  0  0  0  0  0  0
    7.6306   -4.8536    0.0000 C   0  0  0  0  0  0  0  0  0  0  0  0
    6.8056   -4.8536    0.0000 C   0  0  0  0  0  0  0  0  0  0  0  0
    6.3931   -4.1392    0.0000 C   0  0  0  0  0  0  0  0  0  0  0  0
    5.5861   -3.9676    0.0000 S   0  0  0  0  0  0  0  0  0  0  0  0
  1  2  3  0  0  0  0
  2  3  1  0  0  0  0
  3  4  1  0  0  0  0
  4  5  1  0  0  0  0
  5  6  1  0  0  0  0
  6  7  4  0  0  0  0
  7  8  4  0  0  0  0
  8  9  4  0  0  0  0
  9 10  4  0  0  0  0
 10 11  4  0  0  0  0
 11 12  4  0  0  0  0
 12 13  4  0  0  0  0
  8 13  4  0  0  0  0
 13 14  4  0  0  0  0
  6 14  4  0  0  0  0
M  END
> <activity>
96.1798647

> <InChiKey>
TUBQDCKAWGHZPF-UHFFFAOYSA-N

$$$$

  Mrv2220 08292413132D          

 13 12  0  0  0  0            999 V2000
   -1.3184   -3.7125    0.0000 C   0  0  0  0  0  0  0  0  0  0  0  0
   -1.3184   -2.8875    0.0000 C   0  0  0  0  0  0  0  0  0  0  0  0
   -0.6039   -2.4750    0.0000 C   0  0  0  0  0  0  0  0  0  0  0  0
    0.1105   -2.8875    0.0000 O   0  0  0  0  0  0  0  0  0  0  0  0
   -0.6039   -1.6500    0.0000 N   0  0  0  0  0  0  0  0  0  0  0  0
    0.1105   -1.2375    0.0000 C   0  0  0  0  0  0  0  0  0  0  0  0
    0.5230   -1.9520    0.0000 C   0  0  0  0  0  0  0  0  0  0  0  0
   -0.3020   -0.5230    0.0000 C   0  0  0  0  0  0  0  0  0  0  0  0
    0.8250   -0.8250    0.0000 C   0  0  0  0  0  0  0  0  0  0  0  0
    0.8250    0.0000    0.0000 S   0  0  0  0  0  0  0  0  0  0  0  0
    0.8250    0.8250    0.0000 O   0  0  0  0  0  0  0  0  0  0  0  0
    1.6500   -0.0000    0.0000 O   0  0  0  0  0  0  0  0  0  0  0  0
    0.0000    0.0000    0.0000 O   0  0  0  0  0  0  0  0  0  0  0  0
  1  2  2  0  0  0  0
  2  3  1  0  0  0  0
  3  4  2  0  0  0  0
  3  5  1  0  0  0  0
  5  6  1  0  0  0  0
  6  7  1  0  0  0  0
  6  8  1  0  0  0  0
  6  9  1  0  0  0  0
  9 10  1  0  0  0  0
 10 11  2  0  0  0  0
 10 12  2  0  0  0  0
 10 13  1  0  0  0  0
M  END
> <activity>
1.340730467

> <InChiKey>
XHZPRMZZQOIPDS-UHFFFAOYSA-N

$$$$

  Mrv2220 08292413132D          

  9  9  0  0  0  0            999 V2000
    0.0000    2.4750    0.0000 C   0  0  0  0  0  0  0  0  0  0  0  0
    0.7145    2.0625    0.0000 O   0  0  0  0  0  0  0  0  0  0  0  0
    0.7145    1.2375    0.0000 C   0  0  0  0  0  0  0  0  0  0  0  0
    1.4289    0.8250    0.0000 C   0  0  0  0  0  0  0  0  0  0  0  0
    1.4289   -0.0000    0.0000 C   0  0  0  0  0  0  0  0  0  0  0  0
    0.7145   -0.4125    0.0000 C   0  0  0  0  0  0  0  0  0  0  0  0
    0.0000    0.0000    0.0000 C   0  0  0  0  0  0  0  0  0  0  0  0
    0.0000    0.8250    0.0000 C   0  0  0  0  0  0  0  0  0  0  0  0
   -0.7145    1.2375    0.0000 N   0  0  0  0  0  0  0  0  0  0  0  0
  1  2  1  0  0  0  0
  2  3  1  0  0  0  0
  3  4  4  0  0  0  0
  4  5  4  0  0  0  0
  5  6  4  0  0  0  0
  6  7  4  0  0  0  0
  7  8  4  0  0  0  0
  3  8  4  0  0  0  0
  8  9  1  0  0  0  0
M  END
> <activity>
52.25730398

> <InChiKey>
VMPITZXILSNTON-UHFFFAOYSA-N

$$$$

  Mrv2220 08292413132D          

 11 11  0  0  0  0            999 V2000
   -0.7145    2.0625    0.0000 O   0  0  0  0  0  0  0  0  0  0  0  0
    0.0000    2.4750    0.0000 C   0  0  0  0  0  0  0  0  0  0  0  0
    0.0000    3.3000    0.0000 C   0  0  0  0  0  0  0  0  0  0  0  0
   -0.7145    3.7125    0.0000 Cl  0  0  0  0  0  0  0  0  0  0  0  0
    0.7145    2.0625    0.0000 N   0  0  0  0  0  0  0  0  0  0  0  0
    0.7145    1.2375    0.0000 C   0  0  0  0  0  0  0  0  0  0  0  0
    1.4289    0.8250    0.0000 C   0  0  0  0  0  0  0  0  0  0  0  0
    1.4289   -0.0000    0.0000 C   0  0  0  0  0  0  0  0  0  0  0  0
    0.7145   -0.4125    0.0000 C   0  0  0  0  0  0  0  0  0  0  0  0
    0.0000    0.0000    0.0000 C   0  0  0  0  0  0  0  0  0  0  0  0
    0.0000    0.8250    0.0000 C   0  0  0  0  0  0  0  0  0  0  0  0
  1  2  2  0  0  0  0
  2  3  1  0  0  0  0
  3  4  1  0  0  0  0
  2  5  1  0  0  0  0
  5  6  1  0  0  0  0
  6  7  4  0  0  0  0
  7  8  4  0  0  0  0
  8  9  4  0  0  0  0
  9 10  4  0  0  0  0
 10 11  4  0  0  0  0
  6 11  4  0  0  0  0
M  END
> <activity>
27.63407157

> <InChiKey>
VONWPEXRCLHKRJ-UHFFFAOYSA-N

$$$$

  Mrv2220 08292413132D          

  6  5  0  0  0  0            999 V2000
   -0.1914    0.7145    0.0000 C   0  0  0  0  0  0  0  0  0  0  0  0
    0.5230    1.1270    0.0000 C   0  0  0  0  0  0  0  0  0  0  0  0
    1.2375    0.7145    0.0000 O   0  0  0  0  0  0  0  0  0  0  0  0
    1.9520    1.1270    0.0000 C   0  0  0  0  0  0  0  0  0  0  0  0
    2.6664    0.7145    0.0000 C   0  0  0  0  0  0  0  0  0  0  0  0
    3.3809    1.1270    0.0000 O   0  0  0  0  0  0  0  0  0  0  0  0
  1  2  1  0  0  0  0
  2  3  1  0  0  0  0
  3  4  1  0  0  0  0
  4  5  1  0  0  0  0
  5  6  1  0  0  0  0
M  END
> <activity>
-23.54424203

> <InChiKey>
ZNQVEEAIQZEUHB-UHFFFAOYSA-N

$$$$

  Mrv2220 08292413132D          

  9  8  0  0  0  0            999 V2000
    0.8250   -1.4289    0.0000 C   0  0  0  0  0  0  0  0  0  0  0  0
    1.2375   -2.1434    0.0000 C   0  0  0  0  0  0  0  0  0  0  0  0
    2.0625   -2.1434    0.0000 C   0  0  0  0  0  0  0  0  0  0  0  0
    2.4750   -2.8579    0.0000 C   0  0  0  0  0  0  0  0  0  0  0  0
    3.3000   -2.8579    0.0000 C   0  0  0  0  0  0  0  0  0  0  0  0
    3.7125   -3.5724    0.0000 C   0  0  0  0  0  0  0  0  0  0  0  0
    4.5375   -3.5724    0.0000 O   0  0  0  0  0  0  0  0  0  0  0  0
    3.7125   -2.1434    0.0000 C   0  0  0  0  0  0  0  0  0  0  0  0
    4.5375   -2.1434    0.0000 C   0  0  0  0  0  0  0  0  0  0  0  0
  1  2  1  0  0  0  0
  2  3  1  0  0  0  0
  3  4  1  0  0  0  0
  4  5  1  0  0  0  0
  5  6  1  0  0  0  0
  6  7  2  0  0  0  0
  5  8  1  0  0  0  0
  8  9  1  0  0  0  0
M  END
> <activity>
5.541245624

> <InChiKey>
LGYNIFWIKSEESD-UHFFFAOYSA-N

$$$$

  Mrv2220 08292413132D          

 20 20  0  0  0  0            999 V2000
    2.1434   -5.3625    0.0000 C   0  0  0  0  0  0  0  0  0  0  0  0
    2.8579   -4.9500    0.0000 C   0  0  0  0  0  0  0  0  0  0  0  0
    3.5724   -5.3625    0.0000 C   0  0  0  0  0  0  0  0  0  0  0  0
    4.2868   -4.9500    0.0000 C   0  0  0  0  0  0  0  0  0  0  0  0
    5.0013   -5.3625    0.0000 C   0  0  0  0  0  0  0  0  0  0  0  0
    5.0013   -6.1875    0.0000 C   0  0  0  0  0  0  0  0  0  0  0  0
    5.7158   -6.6000    0.0000 C   0  0  0  0  0  0  0  0  0  0  0  0
    5.7158   -4.9500    0.0000 C   0  0  0  0  0  0  0  0  0  0  0  0
    6.4302   -5.3625    0.0000 O   0  0  0  0  0  0  0  0  0  0  0  0
    7.1447   -4.9500    0.0000 C   0  0  0  0  0  0  0  0  0  0  0  0
    7.1447   -4.1250    0.0000 O   0  0  0  0  0  0  0  0  0  0  0  0
    7.8592   -5.3625    0.0000 C   0  0  0  0  0  0  0  0  0  0  0  0
    8.5737   -4.9500    0.0000 C   0  0  0  0  0  0  0  0  0  0  0  0
    9.2881   -5.3625    0.0000 C   0  0  0  0  0  0  0  0  0  0  0  0
    9.2881   -6.1875    0.0000 C   0  0  0  0  0  0  0  0  0  0  0  0
   10.0026   -6.6000    0.0000 N   0  0  0  0  0  0  0  0  0  0  0  0
   10.7171   -6.1875    0.0000 C   0  0  0  0  0  0  0  0  0  0  0  0
   10.0026   -7.4250    0.0000 C   0  0  0  0  0  0  0  0  0  0  0  0
    8.5737   -6.6000    0.0000 C   0  0  0  0  0  0  0  0  0  0  0  0
    7.8592   -6.1875    0.0000 C   0  0  0  0  0  0  0  0  0  0  0  0
  1  2  1  0  0  0  0
  2  3  1  0  0  0  0
  3  4  1  0  0  0  0
  4  5  1  0  0  0  0
  5  6  1  0  0  0  0
  6  7  1  0  0  0  0
  5  8  1  0  0  0  0
  8  9  1  0  0  0  0
  9 10  1  0  0  0  0
 10 11  2  0  0  0  0
 10 12  1  0  0  0  0
 12 13  4  0  0  0  0
 13 14  4  0  0  0  0
 14 15  4  0  0  0  0
 15 16  1  0  0  0  0
 16 17  1  0  0  0  0
 16 18  1  0  0  0  0
 15 19  4  0  0  0  0
 19 20  4  0  0  0  0
 12 20  4  0  0  0  0
M  END
> <activity>
45.81324631

> <InChiKey>
WYWZRNAHINYAEF-UHFFFAOYSA-N

$$$$

  Mrv2220 08292413132D          

 17 16  0  0  0  0            999 V2000
    6.7105    4.6993    0.0000 C   0  0  0  0  0  0  0  0  0  0  0  0
    7.4250    4.2868    0.0000 C   0  0  0  0  0  0  0  0  0  0  0  0
    8.1395    4.6993    0.0000 C   0  0  0  0  0  0  0  0  0  0  0  0
    8.8539    4.2868    0.0000 C   0  0  0  0  0  0  0  0  0  0  0  0
    9.5684    4.6993    0.0000 C   0  0  0  0  0  0  0  0  0  0  0  0
   10.2829    4.2868    0.0000 C   0  0  0  0  0  0  0  0  0  0  0  0
   10.9974    4.6993    0.0000 C   0  0  0  0  0  0  0  0  0  0  0  0
   11.7118    4.2868    0.0000 C   0  0  0  0  0  0  0  0  0  0  0  0
   12.4263    4.6993    0.0000 C   0  0  0  0  0  0  0  0  0  0  0  0
   12.4263    5.5243    0.0000 C   0  0  0  0  0  0  0  0  0  0  0  0
   13.1408    5.9368    0.0000 O   0  0  0  0  0  0  0  0  0  0  0  0
   13.1408    4.2868    0.0000 C   0  0  0  0  0  0  0  0  0  0  0  0
   13.8552    4.6993    0.0000 C   0  0  0  0  0  0  0  0  0  0  0  0
   14.5697    4.2868    0.0000 C   0  0  0  0  0  0  0  0  0  0  0  0
   15.2842    4.6993    0.0000 C   0  0  0  0  0  0  0  0  0  0  0  0
   15.9987    4.2868    0.0000 C   0  0  0  0  0  0  0  0  0  0  0  0
   16.7131    4.6993    0.0000 C   0  0  0  0  0  0  0  0  0  0  0  0
  1  2  1  0  0  0  0
  2  3  1  0  0  0  0
  3  4  1  0  0  0  0
  4  5  1  0  0  0  0
  5  6  1  0  0  0  0
  6  7  1  0  0  0  0
  7  8  1  0  0  0  0
  8  9  1  0  0  0  0
  9 10  1  0  0  0  0
 10 11  1  0  0  0  0
  9 12  1  0  0  0  0
 12 13  1  0  0  0  0
 13 14  1  0  0  0  0
 14 15  1  0  0  0  0
 15 16  1  0  0  0  0
 16 17  1  0  0  0  0
M  END
> <activity>
27.78831504

> <InChiKey>
XULHFMYCBKQGEE-UHFFFAOYSA-N

$$$$

  Mrv2220 08292413132D          

  6  5  0  0  0  0            999 V2000
    2.4750   -0.0000    0.0000 C   0  0  0  0  0  0  0  0  0  0  0  0
    1.6500   -0.0000    0.0000 C   0  0  0  0  0  0  0  0  0  0  0  0
    1.6500    0.8250    0.0000 C   0  0  0  0  0  0  0  0  0  0  0  0
    1.6500   -0.8250    0.0000 O   0  0  0  0  0  0  0  0  0  0  0  0
    0.8250    0.0000    0.0000 C   0  0  0  0  0  0  0  0  0  0  0  0
    0.0000    0.0000    0.0000 N   0  0  0  0  0  0  0  0  0  0  0  0
  1  2  1  0  0  0  0
  2  3  1  0  0  0  0
  2  4  1  0  0  0  0
  2  5  1  0  0  0  0
  5  6  3  0  0  0  0
M  END
> <activity>
17.39541759

> <InChiKey>
MWFMGBPGAXYFAR-UHFFFAOYSA-N

$$$$

  Mrv2220 08292413132D          

 10 10  0  0  0  0            999 V2000
    0.0000    2.4750    0.0000 C   0  0  0  0  0  0  0  0  0  0  0  0
    0.7145    2.0625    0.0000 C   0  0  0  0  0  0  0  0  0  0  0  0
    1.4289    2.4750    0.0000 C   0  0  0  0  0  0  0  0  0  0  0  0
    0.7145    1.2375    0.0000 C   0  0  0  0  0  0  0  0  0  0  0  0
    1.4289    0.8250    0.0000 C   0  0  0  0  0  0  0  0  0  0  0  0
    1.4289   -0.0000    0.0000 C   0  0  0  0  0  0  0  0  0  0  0  0
    0.7145   -0.4125    0.0000 C   0  0  0  0  0  0  0  0  0  0  0  0
    0.0000    0.0000    0.0000 C   0  0  0  0  0  0  0  0  0  0  0  0
    0.0000    0.8250    0.0000 C   0  0  0  0  0  0  0  0  0  0  0  0
   -0.7145    1.2375    0.0000 O   0  0  0  0  0  0  0  0  0  0  0  0
  1  2  1  0  0  0  0
  2  3  1  0  0  0  0
  2  4  1  0  0  0  0
  4  5  4  0  0  0  0
  5  6  4  0  0  0  0
  6  7  4  0  0  0  0
  7  8  4  0  0  0  0
  8  9  4  0  0  0  0
  4  9  4  0  0  0  0
  9 10  1  0  0  0  0
M  END
> <activity>
85.84807142

> <InChiKey>
CRBJBYGJVIBWIY-UHFFFAOYSA-N

$$$$

  Mrv2220 08292413132D          

 12 12  0  0  0  0            999 V2000
    0.0000    2.4750    0.0000 C   0  0  0  0  0  0  0  0  0  0  0  0
    0.7145    2.0625    0.0000 O   0  0  0  0  0  0  0  0  0  0  0  0
    0.7145    1.2375    0.0000 C   0  0  0  0  0  0  0  0  0  0  0  0
    1.4289    0.8250    0.0000 C   0  0  0  0  0  0  0  0  0  0  0  0
    1.4289   -0.0000    0.0000 C   0  0  0  0  0  0  0  0  0  0  0  0
    2.1434   -0.4125    0.0000 N   0  3  0  0  0  0  0  0  0  0  0  0
    2.8579   -0.0000    0.0000 O   0  0  0  0  0  0  0  0  0  0  0  0
    2.1434   -1.2375    0.0000 O   0  5  0  0  0  0  0  0  0  0  0  0
    0.7145   -0.4125    0.0000 C   0  0  0  0  0  0  0  0  0  0  0  0
    0.0000    0.0000    0.0000 C   0  0  0  0  0  0  0  0  0  0  0  0
    0.0000    0.8250    0.0000 C   0  0  0  0  0  0  0  0  0  0  0  0
   -0.7145    1.2375    0.0000 N   0  0  0  0  0  0  0  0  0  0  0  0
  1  2  1  0  0  0  0
  2  3  1  0  0  0  0
  3  4  4  0  0  0  0
  4  5  4  0  0  0  0
  5  6  1  0  0  0  0
  6  7  2  0  0  0  0
  6  8  1  0  0  0  0
  5  9  4  0  0  0  0
  9 10  4  0  0  0  0
 10 11  4  0  0  0  0
  3 11  4  0  0  0  0
 11 12  1  0  0  0  0
M  CHG  2   6   1   8  -1
M  END
> <activity>
98.78113243

> <InChiKey>
GVBHRNIWBGTNQA-UHFFFAOYSA-N

$$$$

  Mrv2220 08292413132D          

 12 14  0  0  0  0            999 V2000
   -1.0396    1.8646    0.0000 O   0  0  0  0  0  0  0  0  0  0  0  0
   -0.7846    1.0799    0.0000 C   0  0  0  0  0  0  0  0  0  0  0  0
   -1.2695    0.4125    0.0000 O   0  0  0  0  0  0  0  0  0  0  0  0
   -0.7846   -0.2549    0.0000 C   0  0  0  0  0  0  0  0  0  0  0  0
   -1.0396   -1.0396    0.0000 O   0  0  0  0  0  0  0  0  0  0  0  0
   -0.0000   -0.0000    0.0000 C   0  0  0  0  0  0  0  0  0  0  0  0
    0.7145   -0.4125    0.0000 C   0  0  0  0  0  0  0  0  0  0  0  0
    1.4289    0.0000    0.0000 C   0  0  0  0  0  0  0  0  0  0  0  0
    1.4289    0.8250    0.0000 C   0  0  0  0  0  0  0  0  0  0  0  0
    0.7145    1.2375    0.0000 C   0  0  0  0  0  0  0  0  0  0  0  0
    0.5082    0.4125    0.0000 C   0  0  0  0  0  0  0  0  0  0  0  0
   -0.0000    0.8250    0.0000 C   0  0  0  0  0  0  0  0  0  0  0  0
  1  2  2  0  0  0  0
  2  3  1  0  0  0  0
  3  4  1  0  0  0  0
  4  5  2  0  0  0  0
  4  6  1  0  0  0  0
  6  7  1  0  0  0  0
  7  8  1  0  0  0  0
  8  9  2  0  0  0  0
  9 10  1  0  0  0  0
 10 11  1  0  0  0  0
  7 11  1  0  0  0  0
 10 12  1  0  0  0  0
  2 12  1  0  0  0  0
  6 12  1  0  0  0  0
M  END
> <activity>
5.296084208

> <InChiKey>
KNDQHSIWLOJIGP-UHFFFAOYSA-N

$$$$

  Mrv2220 08292413132D          

 11 11  0  0  0  0            999 V2000
    0.7145    2.8875    0.0000 C   0  0  0  0  0  0  0  0  0  0  0  0
    0.7145    2.0625    0.0000 C   0  0  0  0  0  0  0  0  0  0  0  0
   -0.1105    2.0625    0.0000 C   0  0  0  0  0  0  0  0  0  0  0  0
    1.5395    2.0625    0.0000 C   0  0  0  0  0  0  0  0  0  0  0  0
    0.7145    1.2375    0.0000 C   0  0  0  0  0  0  0  0  0  0  0  0
    1.4289    0.8250    0.0000 C   0  0  0  0  0  0  0  0  0  0  0  0
    1.4289   -0.0000    0.0000 C   0  0  0  0  0  0  0  0  0  0  0  0
    0.7145   -0.4125    0.0000 C   0  0  0  0  0  0  0  0  0  0  0  0
    0.0000    0.0000    0.0000 C   0  0  0  0  0  0  0  0  0  0  0  0
    0.0000    0.8250    0.0000 C   0  0  0  0  0  0  0  0  0  0  0  0
   -0.7145    1.2375    0.0000 O   0  0  0  0  0  0  0  0  0  0  0  0
  1  2  1  0  0  0  0
  2  3  1  0  0  0  0
  2  4  1  0  0  0  0
  2  5  1  0  0  0  0
  5  6  4  0  0  0  0
  6  7  4  0  0  0  0
  7  8  4  0  0  0  0
  8  9  4  0  0  0  0
  9 10  4  0  0  0  0
  5 10  4  0  0  0  0
 10 11  1  0  0  0  0
M  END
> <activity>
68.2942369

> <InChiKey>
WJQOZHYUIDYNHM-UHFFFAOYSA-N

$$$$

  Mrv2220 08292413132D          

  7  6  0  0  0  0            999 V2000
    1.9520   -0.3020    0.0000 C   0  0  0  0  0  0  0  0  0  0  0  0
    1.2375   -0.7145    0.0000 C   0  0  0  0  0  0  0  0  0  0  0  0
    0.5230   -1.1270    0.0000 C   0  0  0  0  0  0  0  0  0  0  0  0
    1.6500   -1.4289    0.0000 C   0  0  0  0  0  0  0  0  0  0  0  0
    2.4750   -1.4289    0.0000 O   0  0  0  0  0  0  0  0  0  0  0  0
    0.8250    0.0000    0.0000 C   0  0  0  0  0  0  0  0  0  0  0  0
    0.0000    0.0000    0.0000 O   0  0  0  0  0  0  0  0  0  0  0  0
  1  2  1  0  0  0  0
  2  3  1  0  0  0  0
  2  4  1  0  0  0  0
  4  5  1  0  0  0  0
  2  6  1  0  0  0  0
  6  7  1  0  0  0  0
M  END
> <activity>
13.95437747

> <InChiKey>
SLCVBVWXLSEKPL-UHFFFAOYSA-N

$$$$

  Mrv2220 08292413132D          

  9 10  0  0  0  0            999 V2000
    3.3523    1.9354    0.0000 C   0  0  0  0  0  0  0  0  0  0  0  0
    3.3523    1.1104    0.0000 C   0  0  0  0  0  0  0  0  0  0  0  0
    2.6378    0.6979    0.0000 C   0  0  0  0  0  0  0  0  0  0  0  0
    1.9233    1.1104    0.0000 C   0  0  0  0  0  0  0  0  0  0  0  0
    1.1387    0.8555    0.0000 O   0  0  0  0  0  0  0  0  0  0  0  0
    0.6538    1.5229    0.0000 C   0  0  0  0  0  0  0  0  0  0  0  0
    1.1387    2.1904    0.0000 C   0  0  0  0  0  0  0  0  0  0  0  0
    1.9233    1.9354    0.0000 C   0  0  0  0  0  0  0  0  0  0  0  0
    2.6378    2.3479    0.0000 C   0  0  0  0  0  0  0  0  0  0  0  0
  1  2  4  0  0  0  0
  2  3  4  0  0  0  0
  3  4  4  0  0  0  0
  4  5  4  0  0  0  0
  5  6  4  0  0  0  0
  6  7  4  0  0  0  0
  7  8  4  0  0  0  0
  4  8  4  0  0  0  0
  8  9  4  0  0  0  0
  1  9  4  0  0  0  0
M  END
> <activity>
24.42513756

> <InChiKey>
IANQTJSKSUMEQM-UHFFFAOYSA-N

$$$$

  Mrv2220 08292413132D          

 17 17  0  0  0  0            999 V2000
    2.1434   -5.3625    0.0000 C   0  0  0  0  0  0  0  0  0  0  0  0
    2.8579   -4.9500    0.0000 C   0  0  0  0  0  0  0  0  0  0  0  0
    3.5724   -5.3625    0.0000 C   0  0  0  0  0  0  0  0  0  0  0  0
    4.2868   -4.9500    0.0000 C   0  0  0  0  0  0  0  0  0  0  0  0
    5.0013   -5.3625    0.0000 O   0  0  0  0  0  0  0  0  0  0  0  0
    5.7158   -4.9500    0.0000 C   0  0  0  0  0  0  0  0  0  0  0  0
    5.7158   -4.1250    0.0000 O   0  0  0  0  0  0  0  0  0  0  0  0
    6.4302   -5.3625    0.0000 C   0  0  0  0  0  0  0  0  0  0  0  0
    7.1447   -4.9500    0.0000 O   0  0  0  0  0  0  0  0  0  0  0  0
    7.8592   -5.3625    0.0000 C   0  0  0  0  0  0  0  0  0  0  0  0
    8.5737   -4.9500    0.0000 C   0  0  0  0  0  0  0  0  0  0  0  0
    9.2881   -5.3625    0.0000 C   0  0  0  0  0  0  0  0  0  0  0  0
    9.2881   -6.1875    0.0000 C   0  0  0  0  0  0  0  0  0  0  0  0
   10.0026   -6.6000    0.0000 Cl  0  0  0  0  0  0  0  0  0  0  0  0
    8.5737   -6.6000    0.0000 C   0  0  0  0  0  0  0  0  0  0  0  0
    7.8592   -6.1875    0.0000 C   0  0  0  0  0  0  0  0  0  0  0  0
    7.1447   -6.6000    0.0000 Cl  0  0  0  0  0  0  0  0  0  0  0  0
  1  2  1  0  0  0  0
  2  3  1  0  0  0  0
  3  4  1  0  0  0  0
  4  5  1  0  0  0  0
  5  6  1  0  0  0  0
  6  7  2  0  0  0  0
  6  8  1  0  0  0  0
  8  9  1  0  0  0  0
  9 10  1  0  0  0  0
 10 11  4  0  0  0  0
 11 12  4  0  0  0  0
 12 13  4  0  0  0  0
 13 14  1  0  0  0  0
 13 15  4  0  0  0  0
 15 16  4  0  0  0  0
 10 16  4  0  0  0  0
 16 17  1  0  0  0  0
M  END
> <activity>
80.36463566

> <InChiKey>
UQMRAFJOBWOFNS-UHFFFAOYSA-N

$$$$

  Mrv2220 08292413132D          

 15 15  0  0  0  0            999 V2000
    0.7145    2.8875    0.0000 C   0  0  0  0  0  0  0  0  0  0  0  0
    0.7145    2.0625    0.0000 C   0  0  0  0  0  0  0  0  0  0  0  0
   -0.1105    2.0625    0.0000 C   0  0  0  0  0  0  0  0  0  0  0  0
    1.5395    2.0625    0.0000 C   0  0  0  0  0  0  0  0  0  0  0  0
    0.7145    1.2375    0.0000 C   0  0  0  0  0  0  0  0  0  0  0  0
    1.4289    0.8250    0.0000 C   0  0  0  0  0  0  0  0  0  0  0  0
    1.4289   -0.0000    0.0000 C   0  0  0  0  0  0  0  0  0  0  0  0
    0.7145   -0.4125    0.0000 C   0  0  0  0  0  0  0  0  0  0  0  0
    0.7145   -1.2375    0.0000 O   0  0  0  0  0  0  0  0  0  0  0  0
    0.0000    0.0000    0.0000 C   0  0  0  0  0  0  0  0  0  0  0  0
   -0.7145   -0.4125    0.0000 C   0  0  0  0  0  0  0  0  0  0  0  0
   -1.4289   -0.8250    0.0000 C   0  0  0  0  0  0  0  0  0  0  0  0
   -1.1270    0.3020    0.0000 C   0  0  0  0  0  0  0  0  0  0  0  0
   -0.3020   -1.1270    0.0000 C   0  0  0  0  0  0  0  0  0  0  0  0
    0.0000    0.8250    0.0000 C   0  0  0  0  0  0  0  0  0  0  0  0
  1  2  1  0  0  0  0
  2  3  1  0  0  0  0
  2  4  1  0  0  0  0
  2  5  1  0  0  0  0
  5  6  4  0  0  0  0
  6  7  4  0  0  0  0
  7  8  4  0  0  0  0
  8  9  1  0  0  0  0
  8 10  4  0  0  0  0
 10 11  1  0  0  0  0
 11 12  1  0  0  0  0
 11 13  1  0  0  0  0
 11 14  1  0  0  0  0
 10 15  4  0  0  0  0
  5 15  4  0  0  0  0
M  END
> <activity>
95.10694813

> <InChiKey>
ICKWICRCANNIBI-UHFFFAOYSA-N

$$$$

  Mrv2220 08292413132D          

  9  9  0  0  0  0            999 V2000
    0.7145    2.0625    0.0000 C   0  0  0  0  0  0  0  0  0  0  0  0
    0.7145    1.2375    0.0000 C   0  0  0  0  0  0  0  0  0  0  0  0
    1.4289    0.8250    0.0000 C   0  0  0  0  0  0  0  0  0  0  0  0
    1.4289   -0.0000    0.0000 C   0  0  0  0  0  0  0  0  0  0  0  0
    0.7145   -0.4125    0.0000 C   0  0  0  0  0  0  0  0  0  0  0  0
    0.7145   -1.2375    0.0000 C   0  0  0  0  0  0  0  0  0  0  0  0
    0.0000    0.0000    0.0000 C   0  0  0  0  0  0  0  0  0  0  0  0
   -0.7145   -0.4125    0.0000 O   0  0  0  0  0  0  0  0  0  0  0  0
    0.0000    0.8250    0.0000 C   0  0  0  0  0  0  0  0  0  0  0  0
  1  2  1  0  0  0  0
  2  3  4  0  0  0  0
  3  4  4  0  0  0  0
  4  5  4  0  0  0  0
  5  6  1  0  0  0  0
  5  7  4  0  0  0  0
  7  8  1  0  0  0  0
  7  9  4  0  0  0  0
  2  9  4  0  0  0  0
M  END
> <activity>
75.15746097

> <InChiKey>
NKTOLZVEWDHZMU-UHFFFAOYSA-N

$$$$

  Mrv2220 08292413132D          

 10  9  0  0  0  0            999 V2000
   -0.6039   -3.3000    0.0000 C   0  0  0  0  0  0  0  0  0  0  0  0
   -0.6039   -2.4750    0.0000 C   0  0  0  0  0  0  0  0  0  0  0  0
   -1.3184   -2.0625    0.0000 C   0  0  0  0  0  0  0  0  0  0  0  0
    0.1105   -2.0625    0.0000 C   0  0  0  0  0  0  0  0  0  0  0  0
    0.1105   -1.2375    0.0000 C   0  0  0  0  0  0  0  0  0  0  0  0
    0.8250   -0.8250    0.0000 C   0  0  0  0  0  0  0  0  0  0  0  0
    0.8250    0.0000    0.0000 C   0  0  0  0  0  0  0  0  0  0  0  0
    0.8250    0.8250    0.0000 C   0  0  0  0  0  0  0  0  0  0  0  0
    1.6500   -0.0000    0.0000 C   0  0  0  0  0  0  0  0  0  0  0  0
    0.0000    0.0000    0.0000 O   0  0  0  0  0  0  0  0  0  0  0  0
  1  2  1  0  0  0  0
  2  3  1  0  0  0  0
  2  4  1  0  0  0  0
  4  5  1  0  0  0  0
  5  6  1  0  0  0  0
  6  7  1  0  0  0  0
  7  8  1  0  0  0  0
  7  9  1  0  0  0  0
  7 10  1  0  0  0  0
M  END
> <activity>
12.51616822

> <InChiKey>
HGDVHRITTGWMJK-UHFFFAOYSA-N

$$$$

  Mrv2220 08292413132D          

  9  9  0  0  0  0            999 V2000
    0.7145    2.0625    0.0000 C   0  0  0  0  0  0  0  0  0  0  0  0
    0.7145    1.2375    0.0000 C   0  0  0  0  0  0  0  0  0  0  0  0
    1.4289    0.8250    0.0000 C   0  0  0  0  0  0  0  0  0  0  0  0
    1.4289   -0.0000    0.0000 C   0  0  0  0  0  0  0  0  0  0  0  0
    0.7145   -0.4125    0.0000 C   0  0  0  0  0  0  0  0  0  0  0  0
    0.0000    0.0000    0.0000 C   0  0  0  0  0  0  0  0  0  0  0  0
   -0.7145   -0.4125    0.0000 C   0  0  0  0  0  0  0  0  0  0  0  0
    0.0000    0.8250    0.0000 C   0  0  0  0  0  0  0  0  0  0  0  0
   -0.7145    1.2375    0.0000 N   0  0  0  0  0  0  0  0  0  0  0  0
  1  2  1  0  0  0  0
  2  3  4  0  0  0  0
  3  4  4  0  0  0  0
  4  5  4  0  0  0  0
  5  6  4  0  0  0  0
  6  7  1  0  0  0  0
  6  8  4  0  0  0  0
  2  8  4  0  0  0  0
  8  9  1  0  0  0  0
M  END
> <activity>
43.11033884

> <InChiKey>
UFFBMTHBGFGIHF-UHFFFAOYSA-N

$$$$

  Mrv2220 08292413132D          

 13 13  0  0  0  0            999 V2000
    0.7145    2.0625    0.0000 C   0  0  0  0  0  0  0  0  0  0  0  0
    0.7145    1.2375    0.0000 C   0  0  0  0  0  0  0  0  0  0  0  0
    1.4289    0.8250    0.0000 C   0  0  0  0  0  0  0  0  0  0  0  0
    2.1434    1.2375    0.0000 N   0  3  0  0  0  0  0  0  0  0  0  0
    2.8579    0.8250    0.0000 O   0  0  0  0  0  0  0  0  0  0  0  0
    2.1434    2.0625    0.0000 O   0  5  0  0  0  0  0  0  0  0  0  0
    1.4289   -0.0000    0.0000 C   0  0  0  0  0  0  0  0  0  0  0  0
    0.7145   -0.4125    0.0000 C   0  0  0  0  0  0  0  0  0  0  0  0
    0.0000    0.0000    0.0000 C   0  0  0  0  0  0  0  0  0  0  0  0
    0.0000    0.8250    0.0000 C   0  0  0  0  0  0  0  0  0  0  0  0
   -0.7145    1.2375    0.0000 N   0  3  0  0  0  0  0  0  0  0  0  0
   -1.4289    0.8250    0.0000 O   0  0  0  0  0  0  0  0  0  0  0  0
   -0.7145    2.0625    0.0000 O   0  5  0  0  0  0  0  0  0  0  0  0
  1  2  1  0  0  0  0
  2  3  4  0  0  0  0
  3  4  1  0  0  0  0
  4  5  2  0  0  0  0
  4  6  1  0  0  0  0
  3  7  4  0  0  0  0
  7  8  4  0  0  0  0
  8  9  4  0  0  0  0
  9 10  4  0  0  0  0
  2 10  4  0  0  0  0
 10 11  1  0  0  0  0
 11 12  2  0  0  0  0
 11 13  1  0  0  0  0
M  CHG  4   4   1   6  -1  11   1  13  -1
M  END
> <activity>
62.33371891

> <InChiKey>
XTRDKALNCIHHNI-UHFFFAOYSA-N

$$$$

  Mrv2220 08292413132D          

  6  5  0  0  0  0            999 V2000
    2.4750   -1.4289    0.0000 O   0  0  0  0  0  0  0  0  0  0  0  0
    2.0625   -0.7145    0.0000 C   0  0  0  0  0  0  0  0  0  0  0  0
    1.2375   -0.7145    0.0000 C   0  0  0  0  0  0  0  0  0  0  0  0
    0.8250   -1.4289    0.0000 O   0  0  0  0  0  0  0  0  0  0  0  0
    0.8250    0.0000    0.0000 C   0  0  0  0  0  0  0  0  0  0  0  0
    0.0000    0.0000    0.0000 Cl  0  0  0  0  0  0  0  0  0  0  0  0
  1  2  1  0  0  0  0
  2  3  1  0  0  0  0
  3  4  1  0  0  0  0
  3  5  1  0  0  0  0
  5  6  1  0  0  0  0
M  END
> <activity>
13.82537201

> <InChiKey>
SSZWWUDQMAHNAQ-UHFFFAOYSA-N

$$$$

  Mrv2220 08292413132D          

  9  9  0  0  0  0            999 V2000
    0.7145    2.0625    0.0000 C   0  0  0  0  0  0  0  0  0  0  0  0
    0.7145    1.2375    0.0000 C   0  0  0  0  0  0  0  0  0  0  0  0
    1.4289    0.8250    0.0000 C   0  0  0  0  0  0  0  0  0  0  0  0
    1.4289   -0.0000    0.0000 C   0  0  0  0  0  0  0  0  0  0  0  0
    0.7145   -0.4125    0.0000 C   0  0  0  0  0  0  0  0  0  0  0  0
    0.7145   -1.2375    0.0000 N   0  0  0  0  0  0  0  0  0  0  0  0
    0.0000    0.0000    0.0000 C   0  0  0  0  0  0  0  0  0  0  0  0
    0.0000    0.8250    0.0000 C   0  0  0  0  0  0  0  0  0  0  0  0
   -0.7145    1.2375    0.0000 Cl  0  0  0  0  0  0  0  0  0  0  0  0
  1  2  1  0  0  0  0
  2  3  4  0  0  0  0
  3  4  4  0  0  0  0
  4  5  4  0  0  0  0
  5  6  1  0  0  0  0
  5  7  4  0  0  0  0
  7  8  4  0  0  0  0
  2  8  4  0  0  0  0
  8  9  1  0  0  0  0
M  END
> <activity>
77.07181467

> <InChiKey>
RQKFYFNZSHWXAW-UHFFFAOYSA-N

$$$$

  Mrv2220 08292413132D          

  8  8  0  0  0  0            999 V2000
    0.7145    2.0625    0.0000 C   0  0  0  0  0  0  0  0  0  0  0  0
    0.7145    1.2375    0.0000 C   0  0  0  0  0  0  0  0  0  0  0  0
    1.4289    0.8250    0.0000 C   0  0  0  0  0  0  0  0  0  0  0  0
    1.4289   -0.0000    0.0000 C   0  0  0  0  0  0  0  0  0  0  0  0
    0.7145   -0.4125    0.0000 C   0  0  0  0  0  0  0  0  0  0  0  0
    0.0000    0.0000    0.0000 C   0  0  0  0  0  0  0  0  0  0  0  0
   -0.7145   -0.4125    0.0000 N   0  0  0  0  0  0  0  0  0  0  0  0
    0.0000    0.8250    0.0000 C   0  0  0  0  0  0  0  0  0  0  0  0
  1  2  1  0  0  0  0
  2  3  4  0  0  0  0
  3  4  4  0  0  0  0
  4  5  4  0  0  0  0
  5  6  4  0  0  0  0
  6  7  1  0  0  0  0
  6  8  4  0  0  0  0
  2  8  4  0  0  0  0
M  END
> <activity>
22.97129385

> <InChiKey>
JJYPMNFTHPTTDI-UHFFFAOYSA-N

$$$$

  Mrv2220 08292413132D          

  7  7  0  0  0  0            999 V2000
    0.7145    2.0625    0.0000 C   0  0  0  0  0  0  0  0  0  0  0  0
    0.7145    1.2375    0.0000 C   0  0  0  0  0  0  0  0  0  0  0  0
    1.4289    0.8250    0.0000 C   0  0  0  0  0  0  0  0  0  0  0  0
    1.4289   -0.0000    0.0000 C   0  0  0  0  0  0  0  0  0  0  0  0
    0.7145   -0.4125    0.0000 C   0  0  0  0  0  0  0  0  0  0  0  0
    0.0000    0.0000    0.0000 N   0  0  0  0  0  0  0  0  0  0  0  0
    0.0000    0.8250    0.0000 C   0  0  0  0  0  0  0  0  0  0  0  0
  1  2  1  0  0  0  0
  2  3  4  0  0  0  0
  3  4  4  0  0  0  0
  4  5  4  0  0  0  0
  5  6  4  0  0  0  0
  6  7  4  0  0  0  0
  2  7  4  0  0  0  0
M  END
> <activity>
21.72913313

> <InChiKey>
ITQTTZVARXURQS-UHFFFAOYSA-N

$$$$

  Mrv2220 08292413132D          

 10 10  0  0  0  0            999 V2000
   -0.7145    3.7125    0.0000 O   0  0  0  0  0  0  0  0  0  0  0  0
    0.0000    3.3000    0.0000 C   0  0  0  0  0  0  0  0  0  0  0  0
    0.0000    2.4750    0.0000 C   0  0  0  0  0  0  0  0  0  0  0  0
    0.7145    2.0625    0.0000 C   0  0  0  0  0  0  0  0  0  0  0  0
    0.7145    1.2375    0.0000 C   0  0  0  0  0  0  0  0  0  0  0  0
    1.4289    0.8250    0.0000 C   0  0  0  0  0  0  0  0  0  0  0  0
    1.4289   -0.0000    0.0000 C   0  0  0  0  0  0  0  0  0  0  0  0
    0.7145   -0.4125    0.0000 C   0  0  0  0  0  0  0  0  0  0  0  0
    0.0000    0.0000    0.0000 C   0  0  0  0  0  0  0  0  0  0  0  0
    0.0000    0.8250    0.0000 C   0  0  0  0  0  0  0  0  0  0  0  0
  1  2  1  0  0  0  0
  3  2  1  4  0  0  0
  3  4  2  0  0  0  0
  4  5  1  0  0  0  0
  5  6  4  0  0  0  0
  6  7  4  0  0  0  0
  7  8  4  0  0  0  0
  8  9  4  0  0  0  0
  9 10  4  0  0  0  0
  5 10  4  0  0  0  0
M  END
> <activity>
23.72947381

> <InChiKey>
OOCCDEMITAIZTP-UHFFFAOYSA-N

$$$$

  Mrv2220 08292413132D          

 13 12  0  0  0  0            999 V2000
   -0.1914    0.7145    0.0000 C   0  0  0  0  0  0  0  0  0  0  0  0
    0.5230    1.1270    0.0000 C   0  0  0  0  0  0  0  0  0  0  0  0
    0.5230    1.9520    0.0000 O   0  0  0  0  0  0  0  0  0  0  0  0
    1.2375    0.7145    0.0000 O   0  0  0  0  0  0  0  0  0  0  0  0
    1.9520    1.1270    0.0000 C   0  0  0  0  0  0  0  0  0  0  0  0
    2.6664    0.7145    0.0000 C   0  0  0  0  0  0  0  0  0  0  0  0
    3.3809    1.1270    0.0000 C   0  0  0  0  0  0  0  0  0  0  0  0
    3.3809    1.9520    0.0000 C   0  0  0  0  0  0  0  0  0  0  0  0
    4.0954    0.7145    0.0000 C   0  0  0  0  0  0  0  0  0  0  0  0
    4.8099    1.1270    0.0000 C   0  0  0  0  0  0  0  0  0  0  0  0
    5.5243    1.5395    0.0000 C   0  0  0  0  0  0  0  0  0  0  0  0
    5.2224    0.4125    0.0000 C   0  0  0  0  0  0  0  0  0  0  0  0
    4.3974    1.8414    0.0000 C   0  0  0  0  0  0  0  0  0  0  0  0
  1  2  1  0  0  0  0
  2  3  2  0  0  0  0
  2  4  1  0  0  0  0
  4  5  1  0  0  0  0
  5  6  1  0  0  0  0
  6  7  1  0  0  0  0
  7  8  1  0  0  0  0
  7  9  1  0  0  0  0
  9 10  1  0  0  0  0
 10 11  1  0  0  0  0
 10 12  1  0  0  0  0
 10 13  1  0  0  0  0
M  END
> <activity>
10.05837449

> <InChiKey>
DGKXDLCVQSQVBC-UHFFFAOYSA-N

$$$$

  Mrv2220 08292413132D          

 12 12  0  0  0  0            999 V2000
    0.0000   -2.4750    0.0000 C   0  0  0  0  0  0  0  0  0  0  0  0
    0.7145   -2.8875    0.0000 C   0  0  0  0  0  0  0  0  0  0  0  0
    1.4289   -2.4750    0.0000 C   0  0  0  0  0  0  0  0  0  0  0  0
    2.1434   -2.8875    0.0000 C   0  0  0  0  0  0  0  0  0  0  0  0
    2.8579   -2.4750    0.0000 O   0  0  0  0  0  0  0  0  0  0  0  0
    3.5724   -2.8875    0.0000 C   0  0  0  0  0  0  0  0  0  0  0  0
    4.2868   -2.4750    0.0000 C   0  0  0  0  0  0  0  0  0  0  0  0
    5.0013   -2.8875    0.0000 C   0  0  0  0  0  0  0  0  0  0  0  0
    5.0013   -3.7125    0.0000 C   0  0  0  0  0  0  0  0  0  0  0  0
    5.7158   -4.1250    0.0000 N   0  0  0  0  0  0  0  0  0  0  0  0
    4.2868   -4.1250    0.0000 C   0  0  0  0  0  0  0  0  0  0  0  0
    3.5724   -3.7125    0.0000 C   0  0  0  0  0  0  0  0  0  0  0  0
  1  2  1  0  0  0  0
  2  3  1  0  0  0  0
  3  4  1  0  0  0  0
  4  5  1  0  0  0  0
  5  6  1  0  0  0  0
  6  7  4  0  0  0  0
  7  8  4  0  0  0  0
  8  9  4  0  0  0  0
  9 10  1  0  0  0  0
  9 11  4  0  0  0  0
 11 12  4  0  0  0  0
  6 12  4  0  0  0  0
M  END
> <activity>
61.68164509

> <InChiKey>
UBRIHZOFEJHMIT-UHFFFAOYSA-N

$$$$

  Mrv2220 08292413132D          

  8  8  0  0  0  0            999 V2000
    0.7145    2.0625    0.0000 N   0  0  0  0  0  0  0  0  0  0  0  0
    0.7145    1.2375    0.0000 C   0  0  0  0  0  0  0  0  0  0  0  0
    1.4289    0.8250    0.0000 C   0  0  0  0  0  0  0  0  0  0  0  0
    1.4289   -0.0000    0.0000 C   0  0  0  0  0  0  0  0  0  0  0  0
    0.7145   -0.4125    0.0000 C   0  0  0  0  0  0  0  0  0  0  0  0
    0.7145   -1.2375    0.0000 Cl  0  0  0  0  0  0  0  0  0  0  0  0
    0.0000    0.0000    0.0000 C   0  0  0  0  0  0  0  0  0  0  0  0
    0.0000    0.8250    0.0000 C   0  0  0  0  0  0  0  0  0  0  0  0
  1  2  1  0  0  0  0
  2  3  4  0  0  0  0
  3  4  4  0  0  0  0
  4  5  4  0  0  0  0
  5  6  1  0  0  0  0
  5  7  4  0  0  0  0
  7  8  4  0  0  0  0
  2  8  4  0  0  0  0
M  END
> <activity>
47.91314244

> <InChiKey>
QSNSCYSYFYORTR-UHFFFAOYSA-N

$$$$

  Mrv2220 08292413132D          

 13 14  0  0  0  0            999 V2000
    0.7145   -0.4125    0.0000 O   0  0  0  0  0  0  0  0  0  0  0  0
    0.7145   -1.2375    0.0000 C   0  0  0  0  0  0  0  0  0  0  0  0
    1.4289   -1.6500    0.0000 C   0  0  0  0  0  0  0  0  0  0  0  0
    1.4289   -2.4750    0.0000 C   0  0  0  0  0  0  0  0  0  0  0  0
    0.7145   -2.8875    0.0000 C   0  0  0  0  0  0  0  0  0  0  0  0
    0.7145   -3.7125    0.0000 C   0  0  0  0  0  0  0  0  0  0  0  0
    1.4289   -4.1250    0.0000 C   0  0  0  0  0  0  0  0  0  0  0  0
    1.4289   -4.9500    0.0000 C   0  0  0  0  0  0  0  0  0  0  0  0
    0.7145   -5.3625    0.0000 C   0  0  0  0  0  0  0  0  0  0  0  0
    0.0000   -4.9500    0.0000 C   0  0  0  0  0  0  0  0  0  0  0  0
    0.0000   -4.1250    0.0000 C   0  0  0  0  0  0  0  0  0  0  0  0
    0.0000   -2.4750    0.0000 C   0  0  0  0  0  0  0  0  0  0  0  0
    0.0000   -1.6500    0.0000 C   0  0  0  0  0  0  0  0  0  0  0  0
  1  2  1  0  0  0  0
  2  3  1  0  0  0  0
  3  4  1  0  0  0  0
  4  5  1  0  0  0  0
  5  6  1  0  0  0  0
  6  7  1  0  0  0  0
  7  8  1  0  0  0  0
  8  9  1  0  0  0  0
  9 10  1  0  0  0  0
 10 11  1  0  0  0  0
  6 11  1  0  0  0  0
  5 12  1  0  0  0  0
 12 13  1  0  0  0  0
  2 13  1  0  0  0  0
M  END
> <activity>
82.66215692

> <InChiKey>
AFKMHDZOVNDWLO-UHFFFAOYSA-N

$$$$

  Mrv2220 08292413132D          

 29 31  0  0  0  0            999 V2000
   -5.7158   -4.9500    0.0000 C   0  0  0  0  0  0  0  0  0  0  0  0
   -5.0013   -5.3625    0.0000 C   0  0  0  0  0  0  0  0  0  0  0  0
   -5.0013   -6.1875    0.0000 C   0  0  0  0  0  0  0  0  0  0  0  0
   -4.2868   -6.6000    0.0000 C   0  0  0  0  0  0  0  0  0  0  0  0
   -4.2868   -7.4250    0.0000 C   0  0  0  0  0  0  0  0  0  0  0  0
   -3.5724   -7.8375    0.0000 C   0  0  0  0  0  0  0  0  0  0  0  0
   -3.5724   -8.6625    0.0000 C   0  0  0  0  0  0  0  0  0  0  0  0
   -4.2868   -9.0750    0.0000 C   0  0  0  0  0  0  0  0  0  0  0  0
   -4.2868   -9.9000    0.0000 O   0  0  0  0  0  0  0  0  0  0  0  0
   -5.0013   -8.6625    0.0000 C   0  0  0  0  0  0  0  0  0  0  0  0
   -5.0013   -7.8375    0.0000 C   0  0  0  0  0  0  0  0  0  0  0  0
   -3.5724   -6.1875    0.0000 C   0  0  0  0  0  0  0  0  0  0  0  0
   -3.5724   -5.3625    0.0000 C   0  0  0  0  0  0  0  0  0  0  0  0
   -2.8579   -4.9500    0.0000 C   0  0  0  0  0  0  0  0  0  0  0  0
   -2.1434   -5.3625    0.0000 C   0  0  0  0  0  0  0  0  0  0  0  0
   -1.4289   -4.9500    0.0000 O   0  0  0  0  0  0  0  0  0  0  0  0
   -0.7145   -5.3625    0.0000 C   0  0  0  0  0  0  0  0  0  0  0  0
    0.0000   -4.9500    0.0000 C   0  0  0  0  0  0  0  0  0  0  0  0
    0.7145   -5.3625    0.0000 N   0  0  0  0  0  0  0  0  0  0  0  0
    1.4289   -4.9500    0.0000 C   0  0  0  0  0  0  0  0  0  0  0  0
    0.7145   -6.1875    0.0000 C   0  0  0  0  0  0  0  0  0  0  0  0
   -2.1434   -6.1875    0.0000 C   0  0  0  0  0  0  0  0  0  0  0  0
   -2.8579   -6.6000    0.0000 C   0  0  0  0  0  0  0  0  0  0  0  0
   -5.7158   -6.6000    0.0000 C   0  0  0  0  0  0  0  0  0  0  0  0
   -5.7158   -7.4250    0.0000 C   0  0  0  0  0  0  0  0  0  0  0  0
   -6.4302   -7.8375    0.0000 C   0  0  0  0  0  0  0  0  0  0  0  0
   -7.1447   -7.4250    0.0000 C   0  0  0  0  0  0  0  0  0  0  0  0
   -7.1447   -6.6000    0.0000 C   0  0  0  0  0  0  0  0  0  0  0  0
   -6.4302   -6.1875    0.0000 C   0  0  0  0  0  0  0  0  0  0  0  0
  1  2  1  0  0  0  0
  3  2  1  4  0  0  0
  3  4  2  0  0  0  0
  4  5  1  0  0  0  0
  5  6  4  0  0  0  0
  6  7  4  0  0  0  0
  7  8  4  0  0  0  0
  8  9  1  0  0  0  0
  8 10  4  0  0  0  0
 10 11  4  0  0  0  0
  5 11  4  0  0  0  0
  4 12  1  0  0  0  0
 12 13  4  0  0  0  0
 13 14  4  0  0  0  0
 14 15  4  0  0  0  0
 15 16  1  0  0  0  0
 16 17  1  0  0  0  0
 17 18  1  0  0  0  0
 18 19  1  0  0  0  0
 19 20  1  0  0  0  0
 19 21  1  0  0  0  0
 15 22  4  0  0  0  0
 22 23  4  0  0  0  0
 12 23  4  0  0  0  0
  3 24  1  0  0  0  0
 24 25  4  0  0  0  0
 25 26  4  0  0  0  0
 26 27  4  0  0  0  0
 27 28  4  0  0  0  0
 28 29  4  0  0  0  0
 24 29  4  0  0  0  0
M  END
> <activity>
4.826103947

> <InChiKey>
TXUZVZSFRXZGTL-UHFFFAOYSA-N

$$$$

  Mrv2220 08292413132D          

  9  9  0  0  0  0            999 V2000
    0.0000    2.4750    0.0000 C   0  0  0  0  0  0  0  0  0  0  0  0
    0.7145    2.0625    0.0000 O   0  0  0  0  0  0  0  0  0  0  0  0
    0.7145    1.2375    0.0000 C   0  0  0  0  0  0  0  0  0  0  0  0
    1.4289    0.8250    0.0000 C   0  0  0  0  0  0  0  0  0  0  0  0
    1.4289   -0.0000    0.0000 C   0  0  0  0  0  0  0  0  0  0  0  0
    0.7145   -0.4125    0.0000 C   0  0  0  0  0  0  0  0  0  0  0  0
    0.7145   -1.2375    0.0000 O   0  0  0  0  0  0  0  0  0  0  0  0
    0.0000    0.0000    0.0000 C   0  0  0  0  0  0  0  0  0  0  0  0
    0.0000    0.8250    0.0000 C   0  0  0  0  0  0  0  0  0  0  0  0
  1  2  1  0  0  0  0
  2  3  1  0  0  0  0
  3  4  4  0  0  0  0
  4  5  4  0  0  0  0
  5  6  4  0  0  0  0
  6  7  1  0  0  0  0
  6  8  4  0  0  0  0
  8  9  4  0  0  0  0
  3  9  4  0  0  0  0
M  END
> <activity>
21.41267072

> <InChiKey>
NWVVVBRKAWDGAB-UHFFFAOYSA-N

$$$$

  Mrv2220 08292413132D          

  7  7  0  0  0  0            999 V2000
    0.7145    2.0625    0.0000 C   0  0  0  0  0  0  0  0  0  0  0  0
    0.7145    1.2375    0.0000 N   0  0  0  0  0  0  0  0  0  0  0  0
    1.4289    0.8250    0.0000 C   0  0  0  0  0  0  0  0  0  0  0  0
    1.4289   -0.0000    0.0000 C   0  0  0  0  0  0  0  0  0  0  0  0
    0.7145   -0.4125    0.0000 O   0  0  0  0  0  0  0  0  0  0  0  0
    0.0000    0.0000    0.0000 C   0  0  0  0  0  0  0  0  0  0  0  0
    0.0000    0.8250    0.0000 C   0  0  0  0  0  0  0  0  0  0  0  0
  1  2  1  0  0  0  0
  2  3  1  0  0  0  0
  3  4  1  0  0  0  0
  4  5  1  0  0  0  0
  5  6  1  0  0  0  0
  6  7  1  0  0  0  0
  2  7  1  0  0  0  0
M  END
> <activity>
19.68054397

> <InChiKey>
SJRJJKPEHAURKC-UHFFFAOYSA-N

$$$$

  Mrv2220 08292413132D          

 10 10  0  0  0  0            999 V2000
   -0.7145    3.7125    0.0000 N   0  0  0  0  0  0  0  0  0  0  0  0
    0.0000    3.3000    0.0000 C   0  0  0  0  0  0  0  0  0  0  0  0
    0.0000    2.4750    0.0000 C   0  0  0  0  0  0  0  0  0  0  0  0
    0.7145    2.0625    0.0000 C   0  0  0  0  0  0  0  0  0  0  0  0
    0.7145    1.2375    0.0000 N   0  0  0  0  0  0  0  0  0  0  0  0
    1.4289    0.8250    0.0000 C   0  0  0  0  0  0  0  0  0  0  0  0
    1.4289   -0.0000    0.0000 C   0  0  0  0  0  0  0  0  0  0  0  0
    0.7145   -0.4125    0.0000 O   0  0  0  0  0  0  0  0  0  0  0  0
    0.0000    0.0000    0.0000 C   0  0  0  0  0  0  0  0  0  0  0  0
    0.0000    0.8250    0.0000 C   0  0  0  0  0  0  0  0  0  0  0  0
  1  2  1  0  0  0  0
  2  3  1  0  0  0  0
  3  4  1  0  0  0  0
  4  5  1  0  0  0  0
  5  6  1  0  0  0  0
  6  7  1  0  0  0  0
  7  8  1  0  0  0  0
  8  9  1  0  0  0  0
  9 10  1  0  0  0  0
  5 10  1  0  0  0  0
M  END
> <activity>
7.328752215

> <InChiKey>
UIKUBYKUYUSRSM-UHFFFAOYSA-N

$$$$

  Mrv2220 08292413132D          

 10 10  0  0  0  0            999 V2000
    0.0000    3.3000    0.0000 C   0  0  0  0  0  0  0  0  0  0  0  0
    0.0000    2.4750    0.0000 C   0  0  0  0  0  0  0  0  0  0  0  0
    0.7145    2.0625    0.0000 C   0  0  0  0  0  0  0  0  0  0  0  0
    0.7145    1.2375    0.0000 C   0  0  0  0  0  0  0  0  0  0  0  0
    1.4289    0.8250    0.0000 C   0  0  0  0  0  0  0  0  0  0  0  0
    1.4289   -0.0000    0.0000 C   0  0  0  0  0  0  0  0  0  0  0  0
    0.7145   -0.4125    0.0000 C   0  0  0  0  0  0  0  0  0  0  0  0
    0.7145   -1.2375    0.0000 N   0  0  0  0  0  0  0  0  0  0  0  0
    0.0000    0.0000    0.0000 C   0  0  0  0  0  0  0  0  0  0  0  0
    0.0000    0.8250    0.0000 C   0  0  0  0  0  0  0  0  0  0  0  0
  1  2  1  0  0  0  0
  2  3  1  0  0  0  0
  3  4  1  0  0  0  0
  4  5  4  0  0  0  0
  5  6  4  0  0  0  0
  6  7  4  0  0  0  0
  7  8  1  0  0  0  0
  7  9  4  0  0  0  0
  9 10  4  0  0  0  0
  4 10  4  0  0  0  0
M  END
> <activity>
35.16247601

> <InChiKey>
OAPDPORYXWQVJE-UHFFFAOYSA-N

$$$$

  Mrv2220 08292413132D          

 12 13  0  0  0  0            999 V2000
    0.0000   -2.4750    0.0000 C   0  0  0  0  0  0  0  0  0  0  0  0
    0.0000   -1.6500    0.0000 C   0  0  0  0  0  0  0  0  0  0  0  0
    0.7145   -1.2375    0.0000 C   0  0  0  0  0  0  0  0  0  0  0  0
    0.7145   -0.4125    0.0000 C   0  0  0  0  0  0  0  0  0  0  0  0
    0.0000    0.0000    0.0000 C   0  0  0  0  0  0  0  0  0  0  0  0
    0.0000    0.8250    0.0000 C   0  0  0  0  0  0  0  0  0  0  0  0
    0.7145    1.2375    0.0000 N   0  0  0  0  0  0  0  0  0  0  0  0
    1.4289    0.8250    0.0000 C   0  0  0  0  0  0  0  0  0  0  0  0
    1.4289   -0.0000    0.0000 C   0  0  0  0  0  0  0  0  0  0  0  0
    1.4289   -1.6500    0.0000 C   0  0  0  0  0  0  0  0  0  0  0  0
    1.4289   -2.4750    0.0000 C   0  0  0  0  0  0  0  0  0  0  0  0
    0.7145   -2.8875    0.0000 N   0  0  0  0  0  0  0  0  0  0  0  0
  1  2  4  0  0  0  0
  2  3  4  0  0  0  0
  3  4  1  0  0  0  0
  4  5  4  0  0  0  0
  5  6  4  0  0  0  0
  6  7  4  0  0  0  0
  7  8  4  0  0  0  0
  8  9  4  0  0  0  0
  4  9  4  0  0  0  0
  3 10  4  0  0  0  0
 10 11  4  0  0  0  0
 11 12  4  0  0  0  0
  1 12  4  0  0  0  0
M  END
> <activity>
36.58913468

> <InChiKey>
MWVTWFVJZLCBMC-UHFFFAOYSA-N

$$$$

  Mrv2220 08292413132D          

 17 18  0  0  0  0            999 V2000
    1.5395   -1.2375    0.0000 O   0  0  0  0  0  0  0  0  0  0  0  0
    0.7145   -1.2375    0.0000 S   0  0  0  0  0  0  0  0  0  0  0  0
   -0.1105   -1.2375    0.0000 O   0  0  0  0  0  0  0  0  0  0  0  0
    0.7145   -2.0625    0.0000 C   0  0  0  0  0  0  0  0  0  0  0  0
    1.4289   -2.4750    0.0000 C   0  0  0  0  0  0  0  0  0  0  0  0
    1.4289   -3.3000    0.0000 C   0  0  0  0  0  0  0  0  0  0  0  0
    0.7145   -3.7125    0.0000 C   0  0  0  0  0  0  0  0  0  0  0  0
    0.7145   -4.5375    0.0000 Cl  0  0  0  0  0  0  0  0  0  0  0  0
    0.0000   -3.3000    0.0000 C   0  0  0  0  0  0  0  0  0  0  0  0
    0.0000   -2.4750    0.0000 C   0  0  0  0  0  0  0  0  0  0  0  0
    0.7145   -0.4125    0.0000 C   0  0  0  0  0  0  0  0  0  0  0  0
    0.0000    0.0000    0.0000 C   0  0  0  0  0  0  0  0  0  0  0  0
    0.0000    0.8250    0.0000 C   0  0  0  0  0  0  0  0  0  0  0  0
    0.7145    1.2375    0.0000 C   0  0  0  0  0  0  0  0  0  0  0  0
    0.7145    2.0625    0.0000 Cl  0  0  0  0  0  0  0  0  0  0  0  0
    1.4289    0.8250    0.0000 C   0  0  0  0  0  0  0  0  0  0  0  0
    1.4289   -0.0000    0.0000 C   0  0  0  0  0  0  0  0  0  0  0  0
  1  2  2  0  0  0  0
  2  3  2  0  0  0  0
  2  4  1  0  0  0  0
  4  5  4  0  0  0  0
  5  6  4  0  0  0  0
  6  7  4  0  0  0  0
  7  8  1  0  0  0  0
  7  9  4  0  0  0  0
  9 10  4  0  0  0  0
  4 10  4  0  0  0  0
  2 11  1  0  0  0  0
 11 12  4  0  0  0  0
 12 13  4  0  0  0  0
 13 14  4  0  0  0  0
 14 15  1  0  0  0  0
 14 16  4  0  0  0  0
 16 17  4  0  0  0  0
 11 17  4  0  0  0  0
M  END
> <activity>
32.24124406

> <InChiKey>
GPAPPPVRLPGFEQ-UHFFFAOYSA-N

$$$$

  Mrv2220 08292413132D          

 23 24  0  0  0  0            999 V2000
    1.4289    0.0000    0.0000 C   0  0  0  0  0  0  0  0  0  0  0  0
    2.1434   -0.4125    0.0000 C   0  0  0  0  0  0  0  0  0  0  0  0
    2.1434   -1.2375    0.0000 C   0  0  0  0  0  0  0  0  0  0  0  0
    2.8579   -1.6500    0.0000 C   0  0  0  0  0  0  0  0  0  0  0  0
    2.8579   -2.4750    0.0000 C   0  0  0  0  0  0  0  0  0  0  0  0
    3.5724   -2.8875    0.0000 C   0  0  0  0  0  0  0  0  0  0  0  0
    3.5724   -3.7125    0.0000 C   0  0  0  0  0  0  0  0  0  0  0  0
    4.2868   -4.1250    0.0000 C   0  0  0  0  0  0  0  0  0  0  0  0
    4.2868   -4.9500    0.0000 C   0  0  0  0  0  0  0  0  0  0  0  0
    5.0013   -5.3625    0.0000 C   0  0  0  0  0  0  0  0  0  0  0  0
    5.7158   -4.9500    0.0000 C   0  0  0  0  0  0  0  0  0  0  0  0
    3.5724   -5.3625    0.0000 C   0  0  0  0  0  0  0  0  0  0  0  0
    3.5724   -6.1875    0.0000 N   0  0  0  0  0  0  0  0  0  0  0  0
    2.8579   -4.9500    0.0000 C   0  0  0  0  0  0  0  0  0  0  0  0
    2.1434   -5.3625    0.0000 C   0  0  0  0  0  0  0  0  0  0  0  0
    1.4289   -4.9500    0.0000 C   0  0  0  0  0  0  0  0  0  0  0  0
    2.8579   -4.1250    0.0000 C   0  0  0  0  0  0  0  0  0  0  0  0
    2.1434   -2.8875    0.0000 C   0  0  0  0  0  0  0  0  0  0  0  0
    1.4289   -2.4750    0.0000 C   0  0  0  0  0  0  0  0  0  0  0  0
    0.7145   -2.8875    0.0000 C   0  0  0  0  0  0  0  0  0  0  0  0
    0.0000   -2.4750    0.0000 C   0  0  0  0  0  0  0  0  0  0  0  0
    1.4289   -1.6500    0.0000 C   0  0  0  0  0  0  0  0  0  0  0  0
    0.7145   -1.2375    0.0000 N   0  0  0  0  0  0  0  0  0  0  0  0
  1  2  1  0  0  0  0
  2  3  1  0  0  0  0
  3  4  4  0  0  0  0
  4  5  4  0  0  0  0
  5  6  1  0  0  0  0
  6  7  1  0  0  0  0
  7  8  4  0  0  0  0
  8  9  4  0  0  0  0
  9 10  1  0  0  0  0
 10 11  1  0  0  0  0
  9 12  4  0  0  0  0
 12 13  1  0  0  0  0
 12 14  4  0  0  0  0
 14 15  1  0  0  0  0
 15 16  1  0  0  0  0
 14 17  4  0  0  0  0
  7 17  4  0  0  0  0
  5 18  4  0  0  0  0
 18 19  4  0  0  0  0
 19 20  1  0  0  0  0
 20 21  1  0  0  0  0
 19 22  4  0  0  0  0
  3 22  4  0  0  0  0
 22 23  1  0  0  0  0
M  END
> <activity>
43.36185941

> <InChiKey>
NWIVYGKSHSJHEF-UHFFFAOYSA-N

$$$$

  Mrv2220 08292413132D          

  8  8  0  0  0  0            999 V2000
    0.5678    1.9393    0.0000 C   0  0  0  0  0  0  0  0  0  0  0  0
    0.5678    1.1143    0.0000 N   0  0  0  0  0  0  0  0  0  0  0  0
    1.2352    0.6294    0.0000 S   0  0  0  0  0  0  0  0  0  0  0  0
    0.9803   -0.1553    0.0000 C   0  0  0  0  0  0  0  0  0  0  0  0
    1.4652   -0.8227    0.0000 Cl  0  0  0  0  0  0  0  0  0  0  0  0
    0.1553   -0.1553    0.0000 C   0  0  0  0  0  0  0  0  0  0  0  0
   -0.0997    0.6294    0.0000 C   0  0  0  0  0  0  0  0  0  0  0  0
   -0.8843    0.8843    0.0000 O   0  0  0  0  0  0  0  0  0  0  0  0
  1  2  1  0  0  0  0
  2  3  4  0  0  0  0
  3  4  4  0  0  0  0
  4  5  1  0  0  0  0
  4  6  4  0  0  0  0
  6  7  4  0  0  0  0
  2  7  4  0  0  0  0
  7  8  2  0  0  0  0
M  END
> <activity>
11.55946256

> <InChiKey>
DHNRXBZYEKSXIM-UHFFFAOYSA-N

$$$$

  Mrv2220 08292413132D          

 11 12  0  0  0  0            999 V2000
    2.7845    0.6979    0.0000 N   0  0  0  0  0  0  0  0  0  0  0  0
    2.0701    1.1104    0.0000 C   0  0  0  0  0  0  0  0  0  0  0  0
    1.3556    0.6979    0.0000 N   0  0  0  0  0  0  0  0  0  0  0  0
    0.6411    1.1104    0.0000 C   0  0  0  0  0  0  0  0  0  0  0  0
   -0.1435    0.8555    0.0000 N   0  0  0  0  0  0  0  0  0  0  0  0
   -0.6284    1.5229    0.0000 C   0  0  0  0  0  0  0  0  0  0  0  0
   -0.1435    2.1904    0.0000 N   0  0  0  0  0  0  0  0  0  0  0  0
    0.6411    1.9354    0.0000 C   0  0  0  0  0  0  0  0  0  0  0  0
    1.3556    2.3479    0.0000 C   0  0  0  0  0  0  0  0  0  0  0  0
    1.3556    3.1729    0.0000 S   0  0  0  0  0  0  0  0  0  0  0  0
    2.0701    1.9354    0.0000 N   0  0  0  0  0  0  0  0  0  0  0  0
  1  2  1  0  0  0  0
  2  3  4  0  0  0  0
  3  4  4  0  0  0  0
  4  5  4  0  0  0  0
  5  6  4  0  0  0  0
  6  7  4  0  0  0  0
  7  8  4  0  0  0  0
  4  8  4  0  0  0  0
  8  9  4  0  0  0  0
  9 10  2  0  0  0  0
  9 11  4  0  0  0  0
  2 11  4  0  0  0  0
M  STY  2   1 DAT   2 DAT
M  SAL   1  1   7
M  SDT   1 MRV_IMPLICIT_H                                        
M  SDD   1     0.5304   -0.4125    DR    ALL  0       0  
M  SED   1 IMPL_H1
M  SAL   2  1  11
M  SDT   2 MRV_IMPLICIT_H                                        
M  SDD   2     0.5304   -0.4125    DR    ALL  0       0  
M  SED   2 IMPL_H1
M  END
> <activity>
11.88592199

> <InChiKey>
WYWHKKSPHMUBEB-UHFFFAOYSA-N

$$$$

  Mrv2220 08292413132D          

  4  3  0  0  0  0            999 V2000
    2.0625   -0.7145    0.0000 C   0  0  0  0  0  0  0  0  0  0  0  0
    1.6500   -0.0000    0.0000 C   0  0  0  0  0  0  0  0  0  0  0  0
    0.8250    0.0000    0.0000 C   0  0  0  0  0  0  0  0  0  0  0  0
    0.0000    0.0000    0.0000 N   0  0  0  0  0  0  0  0  0  0  0  0
  1  2  2  0  0  0  0
  2  3  1  0  0  0  0
  3  4  3  0  0  0  0
M  END
> <activity>
79.83144095

> <InChiKey>
NLHHRLWOUZZQLW-UHFFFAOYSA-N

$$$$

  Mrv2220 08292413132D          

  6  5  0  0  0  0            999 V2000
    2.4750   -1.4289    0.0000 C   0  0  0  0  0  0  0  0  0  0  0  0
    2.0625   -0.7145    0.0000 C   0  0  0  0  0  0  0  0  0  0  0  0
    1.2375   -0.7145    0.0000 C   0  0  0  0  0  0  0  0  0  0  0  0
    0.8250    0.0000    0.0000 N   0  0  0  0  0  0  0  0  0  0  0  0
    0.0000    0.0000    0.0000 C   0  0  0  0  0  0  0  0  0  0  0  0
   -0.8250   -0.0000    0.0000 S   0  0  0  0  0  0  0  0  0  0  0  0
  1  2  2  0  0  0  0
  2  3  1  0  0  0  0
  3  4  1  0  0  0  0
  4  5  2  0  0  0  0
  5  6  2  0  0  0  0
M  END
> <activity>
11.238935

> <InChiKey>
ZOJBYZNEUISWFT-UHFFFAOYSA-N

$$$$

  Mrv2220 08292413132D          

 17 18  0  0  0  0            999 V2000
    1.5269   -0.5558    0.0000 C   0  0  0  0  0  0  0  0  0  0  0  0
    0.7145   -0.4125    0.0000 C   0  0  0  0  0  0  0  0  0  0  0  0
    0.1842   -1.0445    0.0000 C   0  0  0  0  0  0  0  0  0  0  0  0
   -0.3461   -0.4125    0.0000 C   0  0  0  0  0  0  0  0  0  0  0  0
   -1.1586   -0.5558    0.0000 C   0  0  0  0  0  0  0  0  0  0  0  0
   -1.6889    0.0762    0.0000 C   0  0  0  0  0  0  0  0  0  0  0  0
   -1.4067    0.8515    0.0000 C   0  0  0  0  0  0  0  0  0  0  0  0
   -1.9370    1.4835    0.0000 N   0  0  0  0  0  0  0  0  0  0  0  0
   -0.5943    0.9947    0.0000 C   0  0  0  0  0  0  0  0  0  0  0  0
   -0.0640    0.3627    0.0000 C   0  0  0  0  0  0  0  0  0  0  0  0
    0.8986   -1.4570    0.0000 C   0  0  0  0  0  0  0  0  0  0  0  0
    0.8986   -2.2820    0.0000 C   0  0  0  0  0  0  0  0  0  0  0  0
    0.1842   -2.6945    0.0000 C   0  0  0  0  0  0  0  0  0  0  0  0
    0.1842   -3.5195    0.0000 O   0  0  0  0  0  0  0  0  0  0  0  0
   -0.5303   -2.2820    0.0000 N   0  0  0  0  0  0  0  0  0  0  0  0
   -0.5303   -1.4570    0.0000 C   0  0  0  0  0  0  0  0  0  0  0  0
   -1.2448   -1.0445    0.0000 O   0  0  0  0  0  0  0  0  0  0  0  0
  1  2  1  0  0  0  0
  2  3  1  0  0  0  0
  3  4  1  0  0  0  0
  4  5  4  0  0  0  0
  5  6  4  0  0  0  0
  6  7  4  0  0  0  0
  7  8  1  0  0  0  0
  7  9  4  0  0  0  0
  9 10  4  0  0  0  0
  4 10  4  0  0  0  0
  3 11  1  0  0  0  0
 11 12  1  0  0  0  0
 12 13  1  0  0  0  0
 13 14  2  0  0  0  0
 13 15  1  0  0  0  0
 15 16  1  0  0  0  0
  3 16  1  0  0  0  0
 16 17  2  0  0  0  0
M  END
> <activity>
11.27842345

> <InChiKey>
ROBVIMPUHSLWNV-UHFFFAOYSA-N

$$$$

  Mrv2220 08292413132D          

 31 33  0  0  0  0            999 V2000
   -1.4289   -2.4750    0.0000 O   0  0  0  0  0  0  0  0  0  0  0  0
   -1.4289   -1.6500    0.0000 C   0  0  0  0  0  0  0  0  0  0  0  0
   -2.1434   -1.2375    0.0000 N   0  0  0  0  0  0  0  0  0  0  0  0
   -2.1434   -0.4125    0.0000 C   0  0  0  0  0  0  0  0  0  0  0  0
   -1.4289   -0.0000    0.0000 O   0  0  0  0  0  0  0  0  0  0  0  0
   -2.8579   -0.0000    0.0000 C   0  0  0  0  0  0  0  0  0  0  0  0
   -3.5724   -0.4125    0.0000 C   0  0  0  0  0  0  0  0  0  0  0  0
   -4.2868   -0.0000    0.0000 C   0  0  0  0  0  0  0  0  0  0  0  0
   -5.0013   -0.4125    0.0000 F   0  0  0  0  0  0  0  0  0  0  0  0
   -4.2868    0.8250    0.0000 C   0  0  0  0  0  0  0  0  0  0  0  0
   -5.0013    1.2375    0.0000 F   0  0  0  0  0  0  0  0  0  0  0  0
   -3.5724    1.2375    0.0000 C   0  0  0  0  0  0  0  0  0  0  0  0
   -2.8579    0.8250    0.0000 C   0  0  0  0  0  0  0  0  0  0  0  0
   -2.1434    1.2375    0.0000 Cl  0  0  0  0  0  0  0  0  0  0  0  0
   -0.7145   -1.2375    0.0000 N   0  0  0  0  0  0  0  0  0  0  0  0
    0.0000   -1.6500    0.0000 C   0  0  0  0  0  0  0  0  0  0  0  0
    0.0000   -2.4750    0.0000 C   0  0  0  0  0  0  0  0  0  0  0  0
    0.7145   -2.8875    0.0000 C   0  0  0  0  0  0  0  0  0  0  0  0
    0.7145   -3.7125    0.0000 F   0  0  0  0  0  0  0  0  0  0  0  0
    1.4289   -2.4750    0.0000 C   0  0  0  0  0  0  0  0  0  0  0  0
    1.4289   -1.6500    0.0000 C   0  0  0  0  0  0  0  0  0  0  0  0
    0.7145   -1.2375    0.0000 C   0  0  0  0  0  0  0  0  0  0  0  0
    0.7145   -0.4125    0.0000 N   0  0  0  0  0  0  0  0  0  0  0  0
    0.0000   -0.0000    0.0000 C   0  0  0  0  0  0  0  0  0  0  0  0
    0.0000    0.8250    0.0000 C   0  0  0  0  0  0  0  0  0  0  0  0
    0.7145    1.2375    0.0000 C   0  0  0  0  0  0  0  0  0  0  0  0
    0.7145    2.0625    0.0000 C   0  0  0  0  0  0  0  0  0  0  0  0
    0.0000    2.4750    0.0000 O   0  0  0  0  0  0  0  0  0  0  0  0
    1.4289    2.4750    0.0000 O   0  0  0  0  0  0  0  0  0  0  0  0
    1.4289    0.8250    0.0000 C   0  0  0  0  0  0  0  0  0  0  0  0
    1.4289   -0.0000    0.0000 C   0  0  0  0  0  0  0  0  0  0  0  0
  1  2  2  0  0  0  0
  2  3  1  0  0  0  0
  3  4  1  0  0  0  0
  4  5  2  0  0  0  0
  4  6  1  0  0  0  0
  6  7  4  0  0  0  0
  7  8  4  0  0  0  0
  8  9  1  0  0  0  0
  8 10  4  0  0  0  0
 10 11  1  0  0  0  0
 10 12  4  0  0  0  0
 12 13  4  0  0  0  0
  6 13  4  0  0  0  0
 13 14  1  0  0  0  0
  2 15  1  0  0  0  0
 15 16  1  0  0  0  0
 16 17  4  0  0  0  0
 17 18  4  0  0  0  0
 18 19  1  0  0  0  0
 18 20  4  0  0  0  0
 20 21  4  0  0  0  0
 21 22  4  0  0  0  0
 16 22  4  0  0  0  0
 22 23  1  0  0  0  0
 23 24  1  0  0  0  0
 24 25  1  0  0  0  0
 25 26  1  0  0  0  0
 26 27  1  0  0  0  0
 27 28  2  0  0  0  0
 27 29  1  0  0  0  0
 26 30  1  0  0  0  0
 30 31  1  0  0  0  0
 23 31  1  0  0  0  0
M  END
> <activity>
21.4705986

> <InChiKey>
KAJJGOCSAXKXBD-UHFFFAOYSA-N

$$$$

  Mrv2220 08292413132D          

 16 17  0  0  0  0            999 V2000
    0.0000   -1.6500    0.0000 C   0  0  0  0  0  0  0  0  0  0  0  0
    0.7145   -1.2375    0.0000 C   0  0  0  0  0  0  0  0  0  0  0  0
    0.7145   -0.4125    0.0000 C   0  0  0  0  0  0  0  0  0  0  0  0
    1.4289    0.0000    0.0000 O   0  0  0  0  0  0  0  0  0  0  0  0
    2.1434   -0.4125    0.0000 C   0  0  0  0  0  0  0  0  0  0  0  0
    2.8579    0.0000    0.0000 C   0  0  0  0  0  0  0  0  0  0  0  0
    3.5724   -0.4125    0.0000 C   0  0  0  0  0  0  0  0  0  0  0  0
    3.5724   -1.2375    0.0000 C   0  0  0  0  0  0  0  0  0  0  0  0
    2.8579   -1.6500    0.0000 C   0  0  0  0  0  0  0  0  0  0  0  0
    2.1434   -1.2375    0.0000 C   0  0  0  0  0  0  0  0  0  0  0  0
    1.4289   -1.6500    0.0000 N   0  0  0  0  0  0  0  0  0  0  0  0
    1.4289   -2.4750    0.0000 C   0  0  0  0  0  0  0  0  0  0  0  0
    2.1434   -2.8875    0.0000 O   0  0  0  0  0  0  0  0  0  0  0  0
    0.7145   -2.8875    0.0000 C   0  0  0  0  0  0  0  0  0  0  0  0
    0.7145   -3.7125    0.0000 Cl  0  0  0  0  0  0  0  0  0  0  0  0
    0.0000   -2.4750    0.0000 Cl  0  0  0  0  0  0  0  0  0  0  0  0
  1  2  1  0  0  0  0
  2  3  1  0  0  0  0
  3  4  1  0  0  0  0
  4  5  1  0  0  0  0
  5  6  4  0  0  0  0
  6  7  4  0  0  0  0
  7  8  4  0  0  0  0
  8  9  4  0  0  0  0
  9 10  4  0  0  0  0
  5 10  4  0  0  0  0
 10 11  1  0  0  0  0
  2 11  1  0  0  0  0
 11 12  1  0  0  0  0
 12 13  2  0  0  0  0
 12 14  1  0  0  0  0
 14 15  1  0  0  0  0
 14 16  1  0  0  0  0
M  END
> <activity>
31.68089716

> <InChiKey>
PFJJMJDEVDLPNE-UHFFFAOYSA-N

$$$$

  Mrv2220 08292413132D          

 21 23  0  0  0  0            999 V2000
   -2.1434   -3.7125    0.0000 C   0  0  0  0  0  0  0  0  0  0  0  0
   -2.1434   -2.8875    0.0000 O   0  0  0  0  0  0  0  0  0  0  0  0
   -1.4289   -2.4750    0.0000 C   0  0  0  0  0  0  0  0  0  0  0  0
   -1.4289   -1.6500    0.0000 C   0  0  0  0  0  0  0  0  0  0  0  0
   -0.7145   -1.2375    0.0000 C   0  0  0  0  0  0  0  0  0  0  0  0
    0.0000   -1.6500    0.0000 C   0  0  0  0  0  0  0  0  0  0  0  0
    0.7145   -1.2375    0.0000 C   0  0  0  0  0  0  0  0  0  0  0  0
    0.7145   -0.4125    0.0000 C   0  0  0  0  0  0  0  0  0  0  0  0
    1.4289    0.0000    0.0000 O   0  0  0  0  0  0  0  0  0  0  0  0
    2.1434   -0.4125    0.0000 C   0  0  0  0  0  0  0  0  0  0  0  0
    2.8579    0.0000    0.0000 C   0  0  0  0  0  0  0  0  0  0  0  0
    3.5724   -0.4125    0.0000 C   0  0  0  0  0  0  0  0  0  0  0  0
    4.2868   -0.0000    0.0000 O   0  0  0  0  0  0  0  0  0  0  0  0
    3.5724   -1.2375    0.0000 C   0  0  0  0  0  0  0  0  0  0  0  0
    2.8579   -1.6500    0.0000 C   0  0  0  0  0  0  0  0  0  0  0  0
    2.8579   -2.4750    0.0000 O   0  0  0  0  0  0  0  0  0  0  0  0
    2.1434   -1.2375    0.0000 C   0  0  0  0  0  0  0  0  0  0  0  0
    1.4289   -1.6500    0.0000 C   0  0  0  0  0  0  0  0  0  0  0  0
    1.4289   -2.4750    0.0000 O   0  0  0  0  0  0  0  0  0  0  0  0
    0.0000   -2.4750    0.0000 C   0  0  0  0  0  0  0  0  0  0  0  0
   -0.7145   -2.8875    0.0000 C   0  0  0  0  0  0  0  0  0  0  0  0
  1  2  1  0  0  0  0
  2  3  1  0  0  0  0
  3  4  4  0  0  0  0
  4  5  4  0  0  0  0
  5  6  4  0  0  0  0
  6  7  1  0  0  0  0
  7  8  4  0  0  0  0
  8  9  4  0  0  0  0
  9 10  4  0  0  0  0
 10 11  4  0  0  0  0
 11 12  4  0  0  0  0
 12 13  1  0  0  0  0
 12 14  4  0  0  0  0
 14 15  4  0  0  0  0
 15 16  1  0  0  0  0
 15 17  4  0  0  0  0
 10 17  4  0  0  0  0
 17 18  4  0  0  0  0
  7 18  4  0  0  0  0
 18 19  2  0  0  0  0
  6 20  4  0  0  0  0
 20 21  4  0  0  0  0
  3 21  4  0  0  0  0
M  END
> <activity>
100.6343086

> <InChiKey>
WUADCCWRTIWANL-UHFFFAOYSA-N

$$$$

  Mrv2220 08292413132D          

 29 32  0  0  0  0            999 V2000
    0.4243   -1.7779    0.0000 O   0  0  0  0  0  0  0  0  0  0  0  0
    1.1387   -1.3654    0.0000 S   0  0  0  0  0  0  0  0  0  0  0  0
    1.4743   -2.1191    0.0000 O   0  0  0  0  0  0  0  0  0  0  0  0
    0.6538   -0.6979    0.0000 O   0  0  0  0  0  0  0  0  0  0  0  0
    1.1387   -0.0305    0.0000 C   0  0  0  0  0  0  0  0  0  0  0  0
    0.4243    0.3820    0.0000 C   0  0  0  0  0  0  0  0  0  0  0  0
   -0.2902   -0.0305    0.0000 C   0  0  0  0  0  0  0  0  0  0  0  0
   -1.0047    0.3820    0.0000 C   0  0  0  0  0  0  0  0  0  0  0  0
   -1.7192   -0.0305    0.0000 Br  0  0  0  0  0  0  0  0  0  0  0  0
   -1.0047    1.2070    0.0000 C   0  0  0  0  0  0  0  0  0  0  0  0
   -1.7192    1.6195    0.0000 O   0  0  0  0  0  0  0  0  0  0  0  0
   -0.2902    1.6195    0.0000 C   0  0  0  0  0  0  0  0  0  0  0  0
   -0.2902    2.4445    0.0000 Br  0  0  0  0  0  0  0  0  0  0  0  0
    0.4243    1.2070    0.0000 C   0  0  0  0  0  0  0  0  0  0  0  0
    1.4743    0.7232    0.0000 C   0  0  0  0  0  0  0  0  0  0  0  0
    0.9894    1.3906    0.0000 C   0  0  0  0  0  0  0  0  0  0  0  0
    1.3249    2.1443    0.0000 C   0  0  0  0  0  0  0  0  0  0  0  0
    0.8400    2.8117    0.0000 Br  0  0  0  0  0  0  0  0  0  0  0  0
    2.1454    2.2305    0.0000 C   0  0  0  0  0  0  0  0  0  0  0  0
    2.4810    2.9842    0.0000 O   0  0  0  0  0  0  0  0  0  0  0  0
    2.6303    1.5631    0.0000 C   0  0  0  0  0  0  0  0  0  0  0  0
    3.4508    1.6493    0.0000 Br  0  0  0  0  0  0  0  0  0  0  0  0
    2.2948    0.8094    0.0000 C   0  0  0  0  0  0  0  0  0  0  0  0
    1.9233   -0.2854    0.0000 C   0  0  0  0  0  0  0  0  0  0  0  0
    2.6378    0.1271    0.0000 C   0  0  0  0  0  0  0  0  0  0  0  0
    3.3523   -0.2854    0.0000 C   0  0  0  0  0  0  0  0  0  0  0  0
    3.3523   -1.1104    0.0000 C   0  0  0  0  0  0  0  0  0  0  0  0
    2.6378   -1.5229    0.0000 C   0  0  0  0  0  0  0  0  0  0  0  0
    1.9233   -1.1104    0.0000 C   0  0  0  0  0  0  0  0  0  0  0  0
  1  2  2  0  0  0  0
  2  3  2  0  0  0  0
  2  4  1  0  0  0  0
  4  5  1  0  0  0  0
  5  6  1  0  0  0  0
  6  7  4  0  0  0  0
  7  8  4  0  0  0  0
  8  9  1  0  0  0  0
  8 10  4  0  0  0  0
 10 11  1  0  0  0  0
 10 12  4  0  0  0  0
 12 13  1  0  0  0  0
 12 14  4  0  0  0  0
  6 14  4  0  0  0  0
  5 15  1  0  0  0  0
 15 16  4  0  0  0  0
 16 17  4  0  0  0  0
 17 18  1  0  0  0  0
 17 19  4  0  0  0  0
 19 20  1  0  0  0  0
 19 21  4  0  0  0  0
 21 22  1  0  0  0  0
 21 23  4  0  0  0  0
 15 23  4  0  0  0  0
  5 24  1  0  0  0  0
 24 25  4  0  0  0  0
 25 26  4  0  0  0  0
 26 27  4  0  0  0  0
 27 28  4  0  0  0  0
 28 29  4  0  0  0  0
 24 29  4  0  0  0  0
  2 29  1  0  0  0  0
M  END
> <activity>
102.2260995

> <InChiKey>
UDSAIICHUKSCKT-UHFFFAOYSA-N

$$$$

  Mrv2220 08292413132D          

 21 22  0  0  0  0            999 V2000
    0.0000   -0.0000    0.0000 C   0  0  0  0  0  0  0  0  0  0  0  0
    0.7145   -0.4125    0.0000 C   0  0  0  0  0  0  0  0  0  0  0  0
    1.4289    0.0000    0.0000 C   0  0  0  0  0  0  0  0  0  0  0  0
    0.7145   -1.2375    0.0000 N   0  0  0  0  0  0  0  0  0  0  0  0
    1.4289   -1.6500    0.0000 C   0  0  0  0  0  0  0  0  0  0  0  0
    2.1434   -1.2375    0.0000 O   0  0  0  0  0  0  0  0  0  0  0  0
    1.4289   -2.4750    0.0000 N   0  0  0  0  0  0  0  0  0  0  0  0
    2.1434   -2.8875    0.0000 C   0  0  0  0  0  0  0  0  0  0  0  0
    2.8579   -2.4750    0.0000 C   0  0  0  0  0  0  0  0  0  0  0  0
    3.5724   -2.8875    0.0000 C   0  0  0  0  0  0  0  0  0  0  0  0
    3.5724   -3.7125    0.0000 C   0  0  0  0  0  0  0  0  0  0  0  0
    2.8579   -4.1250    0.0000 C   0  0  0  0  0  0  0  0  0  0  0  0
    2.1434   -3.7125    0.0000 C   0  0  0  0  0  0  0  0  0  0  0  0
    0.7145   -2.8875    0.0000 C   0  0  0  0  0  0  0  0  0  0  0  0
    0.0000   -2.4750    0.0000 S   0  0  0  0  0  0  0  0  0  0  0  0
    0.0000   -1.6500    0.0000 C   0  0  0  0  0  0  0  0  0  0  0  0
   -0.7145   -1.2375    0.0000 N   0  0  0  0  0  0  0  0  0  0  0  0
   -1.4289   -1.6500    0.0000 C   0  0  0  0  0  0  0  0  0  0  0  0
   -2.1434   -2.0625    0.0000 C   0  0  0  0  0  0  0  0  0  0  0  0
   -1.8414   -0.9355    0.0000 C   0  0  0  0  0  0  0  0  0  0  0  0
   -1.0164   -2.3645    0.0000 C   0  0  0  0  0  0  0  0  0  0  0  0
  1  2  1  0  0  0  0
  2  3  1  0  0  0  0
  2  4  1  0  0  0  0
  4  5  1  0  0  0  0
  5  6  2  0  0  0  0
  5  7  1  0  0  0  0
  7  8  1  0  0  0  0
  8  9  4  0  0  0  0
  9 10  4  0  0  0  0
 10 11  4  0  0  0  0
 11 12  4  0  0  0  0
 12 13  4  0  0  0  0
  8 13  4  0  0  0  0
  7 14  1  0  0  0  0
 14 15  1  0  0  0  0
 15 16  1  0  0  0  0
  4 16  1  0  0  0  0
 16 17  2  0  0  0  0
 17 18  1  4  0  0  0
 18 19  1  0  0  0  0
 18 20  1  0  0  0  0
 18 21  1  0  0  0  0
M  END
> <activity>
61.37356636

> <InChiKey>
PRLVTUNWOQKEAI-UHFFFAOYSA-N

$$$$

  Mrv2220 08292413132D          

 21 21  0  0  0  0            999 V2000
    2.1434    3.7125    0.0000 C   0  0  0  0  0  0  0  0  0  0  0  0
    1.4289    3.3000    0.0000 C   0  0  0  0  0  0  0  0  0  0  0  0
    1.4289    2.4750    0.0000 C   0  0  0  0  0  0  0  0  0  0  0  0
    2.1434    2.0625    0.0000 C   0  0  0  0  0  0  0  0  0  0  0  0
    0.7145    2.0625    0.0000 N   0  0  0  0  0  0  0  0  0  0  0  0
    0.7145    1.2375    0.0000 C   0  0  0  0  0  0  0  0  0  0  0  0
    1.4289    0.8250    0.0000 C   0  0  0  0  0  0  0  0  0  0  0  0
    2.1434    1.2375    0.0000 N   0  3  0  0  0  0  0  0  0  0  0  0
    2.8579    0.8250    0.0000 O   0  0  0  0  0  0  0  0  0  0  0  0
    2.6283    1.9049    0.0000 O   0  5  0  0  0  0  0  0  0  0  0  0
    1.4289   -0.0000    0.0000 C   0  0  0  0  0  0  0  0  0  0  0  0
    0.7145   -0.4125    0.0000 C   0  0  0  0  0  0  0  0  0  0  0  0
    0.7145   -1.2375    0.0000 C   0  0  0  0  0  0  0  0  0  0  0  0
    0.7145   -2.0625    0.0000 C   0  0  0  0  0  0  0  0  0  0  0  0
   -0.1105   -1.2375    0.0000 C   0  0  0  0  0  0  0  0  0  0  0  0
    1.5395   -1.2375    0.0000 C   0  0  0  0  0  0  0  0  0  0  0  0
    0.0000    0.0000    0.0000 C   0  0  0  0  0  0  0  0  0  0  0  0
    0.0000    0.8250    0.0000 C   0  0  0  0  0  0  0  0  0  0  0  0
   -0.7145    1.2375    0.0000 N   0  3  0  0  0  0  0  0  0  0  0  0
   -0.7145    2.0625    0.0000 O   0  0  0  0  0  0  0  0  0  0  0  0
   -1.4289    0.8250    0.0000 O   0  5  0  0  0  0  0  0  0  0  0  0
  1  2  1  0  0  0  0
  2  3  1  0  0  0  0
  3  4  1  0  0  0  0
  3  5  1  0  0  0  0
  5  6  1  0  0  0  0
  6  7  4  0  0  0  0
  7  8  1  0  0  0  0
  8  9  2  0  0  0  0
  8 10  1  0  0  0  0
  7 11  4  0  0  0  0
 11 12  4  0  0  0  0
 12 13  1  0  0  0  0
 13 14  1  0  0  0  0
 13 15  1  0  0  0  0
 13 16  1  0  0  0  0
 12 17  4  0  0  0  0
 17 18  4  0  0  0  0
  6 18  4  0  0  0  0
 18 19  1  0  0  0  0
 19 20  2  0  0  0  0
 19 21  1  0  0  0  0
M  CHG  4   8   1  10  -1  19   1  21  -1
M  END
> <activity>
73.41149411

> <InChiKey>
SPNQRCTZKIBOAX-UHFFFAOYSA-N

$$$$

  Mrv2220 08292413132D          

 31 33  0  0  0  0            999 V2000
    1.4289   -4.9500    0.0000 C   0  0  0  0  0  0  0  0  0  0  0  0
    2.1434   -5.3625    0.0000 O   0  0  0  0  0  0  0  0  0  0  0  0
    2.1434   -6.1875    0.0000 C   0  0  0  0  0  0  0  0  0  0  0  0
    2.8579   -6.6000    0.0000 C   0  0  0  0  0  0  0  0  0  0  0  0
    2.8579   -7.4250    0.0000 C   0  0  0  0  0  0  0  0  0  0  0  0
    2.1434   -7.8375    0.0000 C   0  0  0  0  0  0  0  0  0  0  0  0
    2.1434   -8.6625    0.0000 N   0  0  0  0  0  0  0  0  0  0  0  0
    2.8579   -9.0750    0.0000 N   0  0  0  0  0  0  0  0  0  0  0  0
    2.8579   -9.9000    0.0000 C   0  0  0  0  0  0  0  0  0  0  0  0
    3.5724  -10.3125    0.0000 C   0  0  0  0  0  0  0  0  0  0  0  0
    3.5724  -11.1375    0.0000 C   0  0  0  0  0  0  0  0  0  0  0  0
    4.2868  -11.5500    0.0000 C   0  0  0  0  0  0  0  0  0  0  0  0
    2.8579  -11.5500    0.0000 C   0  0  0  0  0  0  0  0  0  0  0  0
    2.8579  -12.3750    0.0000 N   0  0  0  0  0  0  0  0  0  0  0  0
    3.5724  -12.7875    0.0000 N   0  0  0  0  0  0  0  0  0  0  0  0
    3.5724  -13.6125    0.0000 C   0  0  0  0  0  0  0  0  0  0  0  0
    4.2868  -14.0250    0.0000 C   0  0  0  0  0  0  0  0  0  0  0  0
    4.2868  -14.8500    0.0000 C   0  0  0  0  0  0  0  0  0  0  0  0
    3.5724  -15.2625    0.0000 C   0  0  0  0  0  0  0  0  0  0  0  0
    3.5724  -16.0875    0.0000 S   0  0  0  0  0  0  0  0  0  0  0  0
    3.5724  -16.9125    0.0000 O   0  0  0  0  0  0  0  0  0  0  0  0
    2.7474  -16.0875    0.0000 O   0  0  0  0  0  0  0  0  0  0  0  0
    4.3974  -16.0875    0.0000 O   0  0  0  0  0  0  0  0  0  0  0  0
    2.8579  -14.8500    0.0000 C   0  0  0  0  0  0  0  0  0  0  0  0
    2.8579  -14.0250    0.0000 C   0  0  0  0  0  0  0  0  0  0  0  0
    2.1434  -11.1375    0.0000 C   0  0  0  0  0  0  0  0  0  0  0  0
    2.1434  -10.3125    0.0000 C   0  0  0  0  0  0  0  0  0  0  0  0
    1.4289   -9.9000    0.0000 O   0  0  0  0  0  0  0  0  0  0  0  0
    1.4289   -9.0750    0.0000 C   0  0  0  0  0  0  0  0  0  0  0  0
    1.4289   -7.4250    0.0000 C   0  0  0  0  0  0  0  0  0  0  0  0
    1.4289   -6.6000    0.0000 C   0  0  0  0  0  0  0  0  0  0  0  0
  1  2  1  0  0  0  0
  2  3  1  0  0  0  0
  3  4  4  0  0  0  0
  4  5  4  0  0  0  0
  5  6  4  0  0  0  0
  7  6  1  4  0  0  0
  7  8  2  0  0  0  0
  8  9  1  0  0  0  0
  9 10  4  0  0  0  0
 10 11  4  0  0  0  0
 11 12  1  0  0  0  0
 11 13  4  0  0  0  0
 14 13  1  4  0  0  0
 14 15  2  0  0  0  0
 15 16  1  0  0  0  0
 16 17  4  0  0  0  0
 17 18  4  0  0  0  0
 18 19  4  0  0  0  0
 19 20  1  0  0  0  0
 20 21  2  0  0  0  0
 20 22  2  0  0  0  0
 20 23  1  0  0  0  0
 19 24  4  0  0  0  0
 24 25  4  0  0  0  0
 16 25  4  0  0  0  0
 13 26  4  0  0  0  0
 26 27  4  0  0  0  0
  9 27  4  0  0  0  0
 27 28  1  0  0  0  0
 28 29  1  0  0  0  0
  6 30  4  0  0  0  0
 30 31  4  0  0  0  0
  3 31  4  0  0  0  0
M  END
> <activity>
111.1218796

> <InChiKey>
DTRJDURRPWBDEY-UHFFFAOYSA-N

$$$$

  Mrv2220 08292413132D          

 23 25  0  0  0  0            999 V2000
    0.7145   -7.0125    0.0000 O   0  0  0  0  0  0  0  0  0  0  0  0
    0.7145   -6.1875    0.0000 S   0  0  0  0  0  0  0  0  0  0  0  0
    1.5395   -6.1875    0.0000 O   0  0  0  0  0  0  0  0  0  0  0  0
   -0.1105   -6.1875    0.0000 O   0  0  0  0  0  0  0  0  0  0  0  0
    0.7145   -5.3625    0.0000 C   0  0  0  0  0  0  0  0  0  0  0  0
    0.0000   -4.9500    0.0000 C   0  0  0  0  0  0  0  0  0  0  0  0
    0.0000   -4.1250    0.0000 C   0  0  0  0  0  0  0  0  0  0  0  0
    0.7145   -3.7125    0.0000 C   0  0  0  0  0  0  0  0  0  0  0  0
    0.7145   -2.8875    0.0000 N   0  0  0  0  0  0  0  0  0  0  0  0
    1.4289   -2.4750    0.0000 N   0  0  0  0  0  0  0  0  0  0  0  0
    1.4289   -1.6500    0.0000 C   0  0  0  0  0  0  0  0  0  0  0  0
    0.7145   -1.2375    0.0000 C   0  0  0  0  0  0  0  0  0  0  0  0
    0.0000   -1.6500    0.0000 O   0  0  0  0  0  0  0  0  0  0  0  0
    0.7145   -0.4125    0.0000 C   0  0  0  0  0  0  0  0  0  0  0  0
    1.4289    0.0000    0.0000 C   0  0  0  0  0  0  0  0  0  0  0  0
    2.1434   -0.4125    0.0000 C   0  0  0  0  0  0  0  0  0  0  0  0
    2.8579    0.0000    0.0000 C   0  0  0  0  0  0  0  0  0  0  0  0
    3.5724   -0.4125    0.0000 C   0  0  0  0  0  0  0  0  0  0  0  0
    3.5724   -1.2375    0.0000 C   0  0  0  0  0  0  0  0  0  0  0  0
    2.8579   -1.6500    0.0000 C   0  0  0  0  0  0  0  0  0  0  0  0
    2.1434   -1.2375    0.0000 C   0  0  0  0  0  0  0  0  0  0  0  0
    1.4289   -4.1250    0.0000 C   0  0  0  0  0  0  0  0  0  0  0  0
    1.4289   -4.9500    0.0000 C   0  0  0  0  0  0  0  0  0  0  0  0
  1  2  2  0  0  0  0
  2  3  2  0  0  0  0
  2  4  1  0  0  0  0
  2  5  1  0  0  0  0
  5  6  4  0  0  0  0
  6  7  4  0  0  0  0
  7  8  4  0  0  0  0
  9  8  1  4  0  0  0
  9 10  2  0  0  0  0
 10 11  1  0  0  0  0
 11 12  4  0  0  0  0
 12 13  1  0  0  0  0
 12 14  4  0  0  0  0
 14 15  4  0  0  0  0
 15 16  4  0  0  0  0
 16 17  4  0  0  0  0
 17 18  4  0  0  0  0
 18 19  4  0  0  0  0
 19 20  4  0  0  0  0
 20 21  4  0  0  0  0
 11 21  4  0  0  0  0
 16 21  4  0  0  0  0
  8 22  4  0  0  0  0
 22 23  4  0  0  0  0
  5 23  4  0  0  0  0
M  END
> <activity>
110.3122556

> <InChiKey>
RDUJRVXKAIVTDH-UHFFFAOYSA-N

$$$$

  Mrv2220 08292413132D          

 14 15  0  0  0  0            999 V2000
    2.7845    0.6979    0.0000 C   0  0  0  0  0  0  0  0  0  0  0  0
    2.0701    1.1104    0.0000 N   0  0  0  0  0  0  0  0  0  0  0  0
    1.3556    0.6979    0.0000 C   0  0  0  0  0  0  0  0  0  0  0  0
    1.3556   -0.1271    0.0000 O   0  0  0  0  0  0  0  0  0  0  0  0
    0.6411    1.1104    0.0000 C   0  0  0  0  0  0  0  0  0  0  0  0
    0.6411    1.9354    0.0000 C   0  0  0  0  0  0  0  0  0  0  0  0
   -0.1435    2.1904    0.0000 N   0  0  0  0  0  0  0  0  0  0  0  0
   -0.6284    1.5229    0.0000 C   0  0  0  0  0  0  0  0  0  0  0  0
   -0.1435    0.8555    0.0000 N   0  0  0  0  0  0  0  0  0  0  0  0
   -0.3984    0.0709    0.0000 C   0  0  0  0  0  0  0  0  0  0  0  0
    1.3556    2.3479    0.0000 N   0  0  0  0  0  0  0  0  0  0  0  0
    1.3556    3.1729    0.0000 C   0  0  0  0  0  0  0  0  0  0  0  0
    2.0701    1.9354    0.0000 C   0  0  0  0  0  0  0  0  0  0  0  0
    2.7845    2.3479    0.0000 O   0  0  0  0  0  0  0  0  0  0  0  0
  1  2  1  0  0  0  0
  2  3  4  0  0  0  0
  3  4  2  0  0  0  0
  3  5  4  0  0  0  0
  5  6  4  0  0  0  0
  6  7  4  0  0  0  0
  7  8  4  0  0  0  0
  8  9  4  0  0  0  0
  5  9  4  0  0  0  0
  9 10  1  0  0  0  0
  6 11  4  0  0  0  0
 11 12  1  0  0  0  0
 11 13  4  0  0  0  0
  2 13  4  0  0  0  0
 13 14  2  0  0  0  0
M  END
> <activity>
-3.242788835

> <InChiKey>
RYYVLZVUVIJVGH-UHFFFAOYSA-N

$$$$

  Mrv2220 08292413132D          

 26 28  0  0  0  0            999 V2000
   -2.1434   -0.4125    0.0000 C   0  0  0  0  0  0  0  0  0  0  0  0
   -1.4289    0.0000    0.0000 C   0  0  0  0  0  0  0  0  0  0  0  0
   -1.4289    0.8250    0.0000 O   0  0  0  0  0  0  0  0  0  0  0  0
   -0.7145   -0.4125    0.0000 C   0  0  0  0  0  0  0  0  0  0  0  0
   -0.7145   -1.2375    0.0000 C   0  0  0  0  0  0  0  0  0  0  0  0
    0.0000   -1.6500    0.0000 C   0  0  0  0  0  0  0  0  0  0  0  0
    0.7145   -1.2375    0.0000 C   0  0  0  0  0  0  0  0  0  0  0  0
    0.7145   -0.4125    0.0000 C   0  0  0  0  0  0  0  0  0  0  0  0
    0.0000   -0.0000    0.0000 C   0  0  0  0  0  0  0  0  0  0  0  0
    1.4289   -0.0000    0.0000 C   0  0  0  0  0  0  0  0  0  0  0  0
    1.4289    0.8250    0.0000 N   0  0  0  0  0  0  0  0  0  0  0  0
    0.7145    1.2375    0.0000 C   0  0  0  0  0  0  0  0  0  0  0  0
    0.0000    0.8250    0.0000 O   0  0  0  0  0  0  0  0  0  0  0  0
    0.7145    2.0625    0.0000 C   0  0  0  0  0  0  0  0  0  0  0  0
   -0.0000    2.4750    0.0000 C   0  0  0  0  0  0  0  0  0  0  0  0
   -0.0000    3.3000    0.0000 C   0  0  0  0  0  0  0  0  0  0  0  0
    0.7145    3.7125    0.0000 C   0  0  0  0  0  0  0  0  0  0  0  0
    0.7145    4.5375    0.0000 F   0  0  0  0  0  0  0  0  0  0  0  0
    1.4289    3.3000    0.0000 C   0  0  0  0  0  0  0  0  0  0  0  0
    1.4289    2.4750    0.0000 C   0  0  0  0  0  0  0  0  0  0  0  0
    2.1434   -0.4125    0.0000 C   0  0  0  0  0  0  0  0  0  0  0  0
    2.8579   -0.0000    0.0000 O   0  0  0  0  0  0  0  0  0  0  0  0
    2.1434   -1.2375    0.0000 C   0  0  0  0  0  0  0  0  0  0  0  0
    2.9559   -1.0942    0.0000 C   0  0  0  0  0  0  0  0  0  0  0  0
    2.4256   -2.0127    0.0000 C   0  0  0  0  0  0  0  0  0  0  0  0
    1.4289   -1.6500    0.0000 O   0  0  0  0  0  0  0  0  0  0  0  0
  1  2  1  0  0  0  0
  2  3  2  0  0  0  0
  2  4  1  0  0  0  0
  4  5  4  0  0  0  0
  5  6  4  0  0  0  0
  6  7  4  0  0  0  0
  7  8  4  0  0  0  0
  8  9  4  0  0  0  0
  4  9  4  0  0  0  0
  8 10  1  0  0  0  0
 10 11  1  0  0  0  0
 11 12  1  0  0  0  0
 12 13  2  0  0  0  0
 12 14  1  0  0  0  0
 14 15  4  0  0  0  0
 15 16  4  0  0  0  0
 16 17  4  0  0  0  0
 17 18  1  0  0  0  0
 17 19  4  0  0  0  0
 19 20  4  0  0  0  0
 14 20  4  0  0  0  0
 10 21  1  0  0  0  0
 21 22  1  0  0  0  0
 21 23  1  0  0  0  0
 23 24  1  0  0  0  0
 23 25  1  0  0  0  0
 23 26  1  0  0  0  0
  7 26  1  0  0  0  0
M  END
> <activity>
12.45714286

> <InChiKey>
RCLXAPJEFHPYEG-UHFFFAOYSA-N

$$$$

  Mrv2220 08292413132D          

 12 12  0  0  0  0            999 V2000
    0.0000    2.4750    0.0000 C   0  0  0  0  0  0  0  0  0  0  0  0
    0.7145    2.0625    0.0000 O   0  0  0  0  0  0  0  0  0  0  0  0
    0.7145    1.2375    0.0000 C   0  0  0  0  0  0  0  0  0  0  0  0
    1.4289    0.8250    0.0000 C   0  0  0  0  0  0  0  0  0  0  0  0
    1.4289   -0.0000    0.0000 C   0  0  0  0  0  0  0  0  0  0  0  0
    2.1434   -0.4125    0.0000 Cl  0  0  0  0  0  0  0  0  0  0  0  0
    0.7145   -0.4125    0.0000 C   0  0  0  0  0  0  0  0  0  0  0  0
    0.7145   -1.2375    0.0000 O   0  0  0  0  0  0  0  0  0  0  0  0
    1.4289   -1.6500    0.0000 C   0  0  0  0  0  0  0  0  0  0  0  0
    0.0000    0.0000    0.0000 C   0  0  0  0  0  0  0  0  0  0  0  0
    0.0000    0.8250    0.0000 C   0  0  0  0  0  0  0  0  0  0  0  0
   -0.7145    1.2375    0.0000 Cl  0  0  0  0  0  0  0  0  0  0  0  0
  1  2  1  0  0  0  0
  2  3  1  0  0  0  0
  3  4  4  0  0  0  0
  4  5  4  0  0  0  0
  5  6  1  0  0  0  0
  5  7  4  0  0  0  0
  7  8  1  0  0  0  0
  8  9  1  0  0  0  0
  7 10  4  0  0  0  0
 10 11  4  0  0  0  0
  3 11  4  0  0  0  0
 11 12  1  0  0  0  0
M  END
> <activity>
86.96613872

> <InChiKey>
PFIADAMVCJPXSF-UHFFFAOYSA-N

$$$$

  Mrv2220 08292413132D          

 11 10  0  0  0  0            999 V2000
    3.7125    2.1434    0.0000 C   0  0  0  0  0  0  0  0  0  0  0  0
    3.3000    1.4289    0.0000 C   0  0  0  0  0  0  0  0  0  0  0  0
    3.7125    0.7145    0.0000 C   0  0  0  0  0  0  0  0  0  0  0  0
    2.4750    1.4289    0.0000 C   0  0  0  0  0  0  0  0  0  0  0  0
    2.0625    0.7145    0.0000 C   0  0  0  0  0  0  0  0  0  0  0  0
    1.2375    0.7145    0.0000 C   0  0  0  0  0  0  0  0  0  0  0  0
    0.8250    0.0000    0.0000 C   0  0  0  0  0  0  0  0  0  0  0  0
    1.2375   -0.7145    0.0000 C   0  0  0  0  0  0  0  0  0  0  0  0
    0.0000    0.0000    0.0000 C   0  0  0  0  0  0  0  0  0  0  0  0
   -0.4125   -0.7145    0.0000 C   0  0  0  0  0  0  0  0  0  0  0  0
   -0.8250   -1.4289    0.0000 N   0  0  0  0  0  0  0  0  0  0  0  0
  1  2  1  0  0  0  0
  2  3  1  0  0  0  0
  2  4  2  0  0  0  0
  4  5  1  0  0  0  0
  5  6  1  0  0  0  0
  6  7  1  0  0  0  0
  7  8  1  0  0  0  0
  7  9  2  0  0  0  0
  9 10  1  4  0  0  0
 10 11  3  0  0  0  0
M  END
> <activity>
50.73414839

> <InChiKey>
HLCSDJLATUNSSI-UHFFFAOYSA-N

$$$$

  Mrv2220 08292413132D          

 20 22  0  0  0  0            999 V2000
    0.7145   -2.8875    0.0000 Cl  0  0  0  0  0  0  0  0  0  0  0  0
    0.7145   -3.7125    0.0000 C   0  0  0  0  0  0  0  0  0  0  0  0
    1.4289   -4.1250    0.0000 C   0  0  0  0  0  0  0  0  0  0  0  0
    1.4289   -4.9500    0.0000 C   0  0  0  0  0  0  0  0  0  0  0  0
    0.7145   -5.3625    0.0000 C   0  0  0  0  0  0  0  0  0  0  0  0
    0.0000   -4.9500    0.0000 C   0  0  0  0  0  0  0  0  0  0  0  0
    0.0000   -4.1250    0.0000 C   0  0  0  0  0  0  0  0  0  0  0  0
   -0.7145   -3.7125    0.0000 C   0  0  0  0  0  0  0  0  0  0  0  0
   -1.4289   -4.1250    0.0000 N   0  0  0  0  0  0  0  0  0  0  0  0
   -2.1434   -3.7125    0.0000 N   0  0  0  0  0  0  0  0  0  0  0  0
   -2.1434   -2.8875    0.0000 C   0  0  0  0  0  0  0  0  0  0  0  0
   -2.8579   -2.4750    0.0000 C   0  0  0  0  0  0  0  0  0  0  0  0
   -3.5724   -2.8875    0.0000 C   0  0  0  0  0  0  0  0  0  0  0  0
   -4.2868   -2.4750    0.0000 C   0  0  0  0  0  0  0  0  0  0  0  0
   -4.2868   -1.6500    0.0000 C   0  0  0  0  0  0  0  0  0  0  0  0
   -3.5724   -1.2375    0.0000 C   0  0  0  0  0  0  0  0  0  0  0  0
   -2.8579   -1.6500    0.0000 C   0  0  0  0  0  0  0  0  0  0  0  0
   -2.1434   -1.2375    0.0000 Cl  0  0  0  0  0  0  0  0  0  0  0  0
   -1.4289   -2.4750    0.0000 N   0  0  0  0  0  0  0  0  0  0  0  0
   -0.7145   -2.8875    0.0000 N   0  0  0  0  0  0  0  0  0  0  0  0
  1  2  1  0  0  0  0
  2  3  4  0  0  0  0
  3  4  4  0  0  0  0
  4  5  4  0  0  0  0
  5  6  4  0  0  0  0
  6  7  4  0  0  0  0
  2  7  4  0  0  0  0
  7  8  1  0  0  0  0
  8  9  4  0  0  0  0
  9 10  4  0  0  0  0
 10 11  4  0  0  0  0
 11 12  1  0  0  0  0
 12 13  4  0  0  0  0
 13 14  4  0  0  0  0
 14 15  4  0  0  0  0
 15 16  4  0  0  0  0
 16 17  4  0  0  0  0
 12 17  4  0  0  0  0
 17 18  1  0  0  0  0
 11 19  4  0  0  0  0
 19 20  4  0  0  0  0
  8 20  4  0  0  0  0
M  END
> <activity>
60.08369805

> <InChiKey>
UXADOQPNKNTIHB-UHFFFAOYSA-N

$$$$

  Mrv2220 08292413132D          

 11 12  0  0  0  0            999 V2000
    0.0000   -1.6500    0.0000 O   0  0  0  0  0  0  0  0  0  0  0  0
    0.7145   -1.2375    0.0000 C   0  0  0  0  0  0  0  0  0  0  0  0
    0.7145   -0.4125    0.0000 C   0  0  0  0  0  0  0  0  0  0  0  0
    1.4289    0.0000    0.0000 C   0  0  0  0  0  0  0  0  0  0  0  0
    2.1434   -0.4125    0.0000 C   0  0  0  0  0  0  0  0  0  0  0  0
    2.8579    0.0000    0.0000 C   0  0  0  0  0  0  0  0  0  0  0  0
    3.5724   -0.4125    0.0000 C   0  0  0  0  0  0  0  0  0  0  0  0
    3.5724   -1.2375    0.0000 C   0  0  0  0  0  0  0  0  0  0  0  0
    2.8579   -1.6500    0.0000 C   0  0  0  0  0  0  0  0  0  0  0  0
    2.1434   -1.2375    0.0000 C   0  0  0  0  0  0  0  0  0  0  0  0
    1.4289   -1.6500    0.0000 O   0  0  0  0  0  0  0  0  0  0  0  0
  1  2  2  0  0  0  0
  2  3  4  0  0  0  0
  3  4  4  0  0  0  0
  4  5  4  0  0  0  0
  5  6  4  0  0  0  0
  6  7  4  0  0  0  0
  7  8  4  0  0  0  0
  8  9  4  0  0  0  0
  9 10  4  0  0  0  0
  5 10  4  0  0  0  0
 10 11  4  0  0  0  0
  2 11  4  0  0  0  0
M  END
> <activity>
19.72643528

> <InChiKey>
ZYGHJZDHTFUPRJ-UHFFFAOYSA-N

$$$$

  Mrv2220 08292413132D          

 23 25  0  0  0  0            999 V2000
    1.4358   -2.7631    0.0000 N   0  0  0  0  0  0  0  0  0  0  0  0
    0.8838   -2.1500    0.0000 C   0  0  0  0  0  0  0  0  0  0  0  0
    0.0768   -2.3215    0.0000 O   0  0  0  0  0  0  0  0  0  0  0  0
    1.1387   -1.3654    0.0000 N   0  0  0  0  0  0  0  0  0  0  0  0
    0.6538   -0.6979    0.0000 C   0  0  0  0  0  0  0  0  0  0  0  0
   -0.1712   -0.6979    0.0000 O   0  0  0  0  0  0  0  0  0  0  0  0
    1.1387   -0.0305    0.0000 C   0  0  0  0  0  0  0  0  0  0  0  0
    0.8838    0.7541    0.0000 C   0  0  0  0  0  0  0  0  0  0  0  0
    1.4358    1.3672    0.0000 O   0  0  0  0  0  0  0  0  0  0  0  0
    0.0768    0.9256    0.0000 C   0  0  0  0  0  0  0  0  0  0  0  0
   -0.5363    0.3736    0.0000 C   0  0  0  0  0  0  0  0  0  0  0  0
   -1.2508    0.7861    0.0000 C   0  0  0  0  0  0  0  0  0  0  0  0
   -2.0044    0.4506    0.0000 Cl  0  0  0  0  0  0  0  0  0  0  0  0
   -1.0792    1.5931    0.0000 C   0  0  0  0  0  0  0  0  0  0  0  0
   -0.2587    1.6793    0.0000 S   0  0  0  0  0  0  0  0  0  0  0  0
    1.9233   -0.2854    0.0000 C   0  0  0  0  0  0  0  0  0  0  0  0
    2.6378    0.1271    0.0000 C   0  0  0  0  0  0  0  0  0  0  0  0
    3.3523   -0.2854    0.0000 C   0  0  0  0  0  0  0  0  0  0  0  0
    4.0668    0.1271    0.0000 F   0  0  0  0  0  0  0  0  0  0  0  0
    3.3523   -1.1104    0.0000 C   0  0  0  0  0  0  0  0  0  0  0  0
    4.0668   -1.5229    0.0000 Cl  0  0  0  0  0  0  0  0  0  0  0  0
    2.6378   -1.5229    0.0000 C   0  0  0  0  0  0  0  0  0  0  0  0
    1.9233   -1.1104    0.0000 C   0  0  0  0  0  0  0  0  0  0  0  0
  1  2  1  0  0  0  0
  2  3  2  0  0  0  0
  2  4  1  0  0  0  0
  4  5  1  0  0  0  0
  5  6  2  0  0  0  0
  5  7  1  0  0  0  0
  7  8  1  0  0  0  0
  8  9  2  0  0  0  0
  8 10  1  0  0  0  0
 10 11  4  0  0  0  0
 11 12  4  0  0  0  0
 12 13  1  0  0  0  0
 12 14  4  0  0  0  0
 14 15  4  0  0  0  0
 10 15  4  0  0  0  0
  7 16  1  0  0  0  0
 16 17  4  0  0  0  0
 17 18  4  0  0  0  0
 18 19  1  0  0  0  0
 18 20  4  0  0  0  0
 20 21  1  0  0  0  0
 20 22  4  0  0  0  0
 22 23  4  0  0  0  0
 16 23  4  0  0  0  0
  4 23  1  0  0  0  0
M  END
> <activity>
104.9348849

> <InChiKey>
TVBUSVDXSSKDSK-UHFFFAOYSA-N

$$$$

  Mrv2220 08292413132D          

 27 29  0  0  0  0            999 V2000
    3.5724    1.2375    0.0000 C   0  0  0  0  0  0  0  0  0  0  0  0
    4.2868    0.8250    0.0000 O   0  0  0  0  0  0  0  0  0  0  0  0
    4.2868    0.0000    0.0000 C   0  0  0  0  0  0  0  0  0  0  0  0
    5.0013   -0.4125    0.0000 C   0  0  0  0  0  0  0  0  0  0  0  0
    5.0013   -1.2375    0.0000 C   0  0  0  0  0  0  0  0  0  0  0  0
    4.2868   -1.6500    0.0000 C   0  0  0  0  0  0  0  0  0  0  0  0
    4.2868   -2.4750    0.0000 O   0  0  0  0  0  0  0  0  0  0  0  0
    5.0013   -2.8875    0.0000 C   0  0  0  0  0  0  0  0  0  0  0  0
    5.7158   -3.3000    0.0000 F   0  0  0  0  0  0  0  0  0  0  0  0
    5.4138   -2.1730    0.0000 F   0  0  0  0  0  0  0  0  0  0  0  0
    4.5888   -3.6020    0.0000 F   0  0  0  0  0  0  0  0  0  0  0  0
    3.5724   -1.2375    0.0000 C   0  0  0  0  0  0  0  0  0  0  0  0
    3.5724   -0.4125    0.0000 C   0  0  0  0  0  0  0  0  0  0  0  0
    2.8579    0.0000    0.0000 C   0  0  0  0  0  0  0  0  0  0  0  0
    2.8579    0.8250    0.0000 N   0  0  0  0  0  0  0  0  0  0  0  0
    2.1434    1.2375    0.0000 C   0  0  0  0  0  0  0  0  0  0  0  0
    1.4289    0.8250    0.0000 C   0  0  0  0  0  0  0  0  0  0  0  0
    0.7145    1.2375    0.0000 C   0  0  0  0  0  0  0  0  0  0  0  0
    0.7145    2.0625    0.0000 C   0  0  0  0  0  0  0  0  0  0  0  0
    1.4289    2.4750    0.0000 N   0  0  0  0  0  0  0  0  0  0  0  0
    2.1434    2.0625    0.0000 C   0  0  0  0  0  0  0  0  0  0  0  0
    2.8579    2.4750    0.0000 C   0  0  0  0  0  0  0  0  0  0  0  0
    2.8579    3.3000    0.0000 C   0  0  0  0  0  0  0  0  0  0  0  0
    3.5724    3.7125    0.0000 C   0  0  0  0  0  0  0  0  0  0  0  0
    4.2868    3.3000    0.0000 C   0  0  0  0  0  0  0  0  0  0  0  0
    4.2868    2.4750    0.0000 C   0  0  0  0  0  0  0  0  0  0  0  0
    3.5724    2.0625    0.0000 C   0  0  0  0  0  0  0  0  0  0  0  0
  1  2  1  0  0  0  0
  2  3  1  0  0  0  0
  3  4  4  0  0  0  0
  4  5  4  0  0  0  0
  5  6  4  0  0  0  0
  6  7  1  0  0  0  0
  7  8  1  0  0  0  0
  8  9  1  0  0  0  0
  8 10  1  0  0  0  0
  8 11  1  0  0  0  0
  6 12  4  0  0  0  0
 12 13  4  0  0  0  0
  3 13  4  0  0  0  0
 13 14  1  0  0  0  0
 14 15  1  0  0  0  0
 15 16  1  0  0  0  0
 16 17  1  0  0  0  0
 17 18  1  0  0  0  0
 18 19  1  0  0  0  0
 19 20  1  0  0  0  0
 20 21  1  0  0  0  0
 16 21  1  0  0  0  0
 21 22  1  0  0  0  0
 22 23  4  0  0  0  0
 23 24  4  0  0  0  0
 24 25  4  0  0  0  0
 25 26  4  0  0  0  0
 26 27  4  0  0  0  0
 22 27  4  0  0  0  0
M  END
> <activity>
5.164777908

> <InChiKey>
ZIWFCOIGUNPHPM-UHFFFAOYSA-N

$$$$

  Mrv2220 08292413132D          

 28 31  0  0  0  0            999 V2000
   -1.8112    4.2301    0.0000 C   0  0  0  0  0  0  0  0  0  0  0  0
   -0.9907    4.3163    0.0000 C   0  0  0  0  0  0  0  0  0  0  0  0
   -0.9044    3.4958    0.0000 C   0  0  0  0  0  0  0  0  0  0  0  0
   -1.0769    5.1368    0.0000 O   0  0  0  0  0  0  0  0  0  0  0  0
   -0.1702    4.4025    0.0000 C   0  0  0  0  0  0  0  0  0  0  0  0
    0.2423    5.1170    0.0000 C   0  0  0  0  0  0  0  0  0  0  0  0
    1.0493    4.9455    0.0000 O   0  0  0  0  0  0  0  0  0  0  0  0
    1.1355    4.1250    0.0000 C   0  0  0  0  0  0  0  0  0  0  0  0
    1.8500    3.7125    0.0000 S   0  0  0  0  0  0  0  0  0  0  0  0
    1.4375    2.9980    0.0000 O   0  0  0  0  0  0  0  0  0  0  0  0
    2.2625    4.4270    0.0000 O   0  0  0  0  0  0  0  0  0  0  0  0
    2.5645    3.3000    0.0000 N   0  0  0  0  0  0  0  0  0  0  0  0
    2.5645    2.4750    0.0000 C   0  0  0  0  0  0  0  0  0  0  0  0
    1.8500    2.0625    0.0000 O   0  0  0  0  0  0  0  0  0  0  0  0
    3.2789    2.0625    0.0000 N   0  0  0  0  0  0  0  0  0  0  0  0
    3.2789    1.2375    0.0000 C   0  0  0  0  0  0  0  0  0  0  0  0
    3.9934    0.8250    0.0000 C   0  0  0  0  0  0  0  0  0  0  0  0
    3.9934    0.0000    0.0000 C   0  0  0  0  0  0  0  0  0  0  0  0
    3.2789   -0.4125    0.0000 C   0  0  0  0  0  0  0  0  0  0  0  0
    2.5645    0.0000    0.0000 C   0  0  0  0  0  0  0  0  0  0  0  0
    2.5645    0.8250    0.0000 C   0  0  0  0  0  0  0  0  0  0  0  0
    1.7798    1.0799    0.0000 C   0  0  0  0  0  0  0  0  0  0  0  0
    1.2949    0.4125    0.0000 C   0  0  0  0  0  0  0  0  0  0  0  0
    1.7798   -0.2549    0.0000 C   0  0  0  0  0  0  0  0  0  0  0  0
    4.7780   -0.2549    0.0000 C   0  0  0  0  0  0  0  0  0  0  0  0
    5.2629    0.4125    0.0000 C   0  0  0  0  0  0  0  0  0  0  0  0
    4.7780    1.0799    0.0000 C   0  0  0  0  0  0  0  0  0  0  0  0
    0.3818    3.7894    0.0000 C   0  0  0  0  0  0  0  0  0  0  0  0
  1  2  1  0  0  0  0
  2  3  1  0  0  0  0
  2  4  1  0  0  0  0
  2  5  1  0  0  0  0
  5  6  4  0  0  0  0
  6  7  4  0  0  0  0
  7  8  4  0  0  0  0
  8  9  1  0  0  0  0
  9 10  2  0  0  0  0
  9 11  2  0  0  0  0
  9 12  1  0  0  0  0
 12 13  1  0  0  0  0
 13 14  2  0  0  0  0
 13 15  1  0  0  0  0
 15 16  1  0  0  0  0
 16 17  4  0  0  0  0
 17 18  4  0  0  0  0
 18 19  4  0  0  0  0
 19 20  4  0  0  0  0
 20 21  4  0  0  0  0
 16 21  4  0  0  0  0
 21 22  1  0  0  0  0
 22 23  1  0  0  0  0
 23 24  1  0  0  0  0
 20 24  1  0  0  0  0
 18 25  1  0  0  0  0
 25 26  1  0  0  0  0
 26 27  1  0  0  0  0
 17 27  1  0  0  0  0
  8 28  4  0  0  0  0
  5 28  4  0  0  0  0
M  END
> <activity>
35.03390378

> <InChiKey>
HUUSXLKCTQDPGL-UHFFFAOYSA-N

$$$$

  Mrv2220 08292413132D          

 37 41  0  0  0  0            999 V2000
   -1.1495   -5.0203    0.0000 C   0  0  0  0  0  0  0  0  0  0  0  0
   -0.4820   -4.5353    0.0000 N   0  0  0  0  0  0  0  0  0  0  0  0
   -0.5683   -3.7149    0.0000 C   0  0  0  0  0  0  0  0  0  0  0  0
   -1.3220   -3.3793    0.0000 O   0  0  0  0  0  0  0  0  0  0  0  0
    0.0992   -3.2299    0.0000 C   0  0  0  0  0  0  0  0  0  0  0  0
    0.0992   -2.4049    0.0000 O   0  0  0  0  0  0  0  0  0  0  0  0
    0.8838   -2.1500    0.0000 C   0  0  0  0  0  0  0  0  0  0  0  0
    1.1387   -1.3654    0.0000 N   0  0  0  0  0  0  0  0  0  0  0  0
    0.6538   -0.6979    0.0000 C   0  0  0  0  0  0  0  0  0  0  0  0
    1.1387   -0.0305    0.0000 N   0  0  0  0  0  0  0  0  0  0  0  0
    1.9233   -0.2854    0.0000 C   0  0  0  0  0  0  0  0  0  0  0  0
    2.6378    0.1271    0.0000 C   0  0  0  0  0  0  0  0  0  0  0  0
    2.6378    0.9521    0.0000 N   0  0  0  0  0  0  0  0  0  0  0  0
    3.3523    1.3646    0.0000 C   0  0  0  0  0  0  0  0  0  0  0  0
    3.3523    2.1896    0.0000 C   0  0  0  0  0  0  0  0  0  0  0  0
    2.6378    2.6021    0.0000 C   0  0  0  0  0  0  0  0  0  0  0  0
    2.6378    3.4271    0.0000 C   0  0  0  0  0  0  0  0  0  0  0  0
    1.9233    3.8396    0.0000 Cl  0  0  0  0  0  0  0  0  0  0  0  0
    3.3523    3.8396    0.0000 C   0  0  0  0  0  0  0  0  0  0  0  0
    4.0668    3.4271    0.0000 C   0  0  0  0  0  0  0  0  0  0  0  0
    4.0668    2.6021    0.0000 C   0  0  0  0  0  0  0  0  0  0  0  0
    4.7812    2.1896    0.0000 O   0  0  0  0  0  0  0  0  0  0  0  0
    5.4957    2.6021    0.0000 C   0  0  0  0  0  0  0  0  0  0  0  0
    6.2102    2.1896    0.0000 C   0  0  0  0  0  0  0  0  0  0  0  0
    6.9638    2.5251    0.0000 C   0  0  0  0  0  0  0  0  0  0  0  0
    7.5159    1.9120    0.0000 C   0  0  0  0  0  0  0  0  0  0  0  0
    8.3364    1.9983    0.0000 C   0  0  0  0  0  0  0  0  0  0  0  0
    7.1034    1.1975    0.0000 N   0  0  0  0  0  0  0  0  0  0  0  0
    6.2964    1.3691    0.0000 O   0  0  0  0  0  0  0  0  0  0  0  0
    3.3523   -0.2854    0.0000 N   0  0  0  0  0  0  0  0  0  0  0  0
    3.3523   -1.1104    0.0000 C   0  0  0  0  0  0  0  0  0  0  0  0
    2.6378   -1.5229    0.0000 N   0  0  0  0  0  0  0  0  0  0  0  0
    1.9233   -1.1104    0.0000 C   0  0  0  0  0  0  0  0  0  0  0  0
    1.3687   -2.8174    0.0000 C   0  0  0  0  0  0  0  0  0  0  0  0
    2.1937   -2.8174    0.0000 O   0  0  0  0  0  0  0  0  0  0  0  0
    0.8838   -3.4849    0.0000 C   0  0  0  0  0  0  0  0  0  0  0  0
    1.1387   -4.2695    0.0000 N   0  0  0  0  0  0  0  0  0  0  0  0
  1  2  1  0  0  0  0
  2  3  1  0  0  0  0
  3  4  2  0  0  0  0
  3  5  1  0  0  0  0
  5  6  1  0  0  0  0
  6  7  1  0  0  0  0
  7  8  1  0  0  0  0
  8  9  4  0  0  0  0
  9 10  4  0  0  0  0
 10 11  4  0  0  0  0
 11 12  4  0  0  0  0
 12 13  1  0  0  0  0
 13 14  1  0  0  0  0
 14 15  1  0  0  0  0
 15 16  4  0  0  0  0
 16 17  4  0  0  0  0
 17 18  1  0  0  0  0
 17 19  4  0  0  0  0
 19 20  4  0  0  0  0
 20 21  4  0  0  0  0
 15 21  4  0  0  0  0
 21 22  1  0  0  0  0
 22 23  1  0  0  0  0
 23 24  1  0  0  0  0
 24 25  4  0  0  0  0
 25 26  4  0  0  0  0
 26 27  1  0  0  0  0
 26 28  4  0  0  0  0
 28 29  4  0  0  0  0
 24 29  4  0  0  0  0
 12 30  4  0  0  0  0
 30 31  4  0  0  0  0
 31 32  4  0  0  0  0
 32 33  4  0  0  0  0
 11 33  4  0  0  0  0
  8 33  4  0  0  0  0
  7 34  1  0  0  0  0
 34 35  1  0  0  0  0
 34 36  1  0  0  0  0
  5 36  1  0  0  0  0
 36 37  1  0  0  0  0
M  END
> <activity>
5.832623947

> <InChiKey>
PKUZHLZHLVHAIO-UHFFFAOYSA-N

$$$$

  Mrv2220 08292413132D          

 11 11  0  0  0  0            999 V2000
   -0.1105    2.0625    0.0000 C   0  0  0  0  0  0  0  0  0  0  0  0
    0.7145    2.0625    0.0000 C   0  0  0  0  0  0  0  0  0  0  0  0
    1.5395    2.0625    0.0000 C   0  0  0  0  0  0  0  0  0  0  0  0
    0.7145    2.8875    0.0000 O   0  0  0  0  0  0  0  0  0  0  0  0
    0.0000    3.3000    0.0000 O   0  0  0  0  0  0  0  0  0  0  0  0
    0.7145    1.2375    0.0000 C   0  0  0  0  0  0  0  0  0  0  0  0
    1.4289    0.8250    0.0000 C   0  0  0  0  0  0  0  0  0  0  0  0
    1.4289   -0.0000    0.0000 C   0  0  0  0  0  0  0  0  0  0  0  0
    0.7145   -0.4125    0.0000 C   0  0  0  0  0  0  0  0  0  0  0  0
    0.0000    0.0000    0.0000 C   0  0  0  0  0  0  0  0  0  0  0  0
    0.0000    0.8250    0.0000 C   0  0  0  0  0  0  0  0  0  0  0  0
  1  2  1  0  0  0  0
  2  3  1  0  0  0  0
  2  4  1  0  0  0  0
  4  5  1  0  0  0  0
  2  6  1  0  0  0  0
  6  7  4  0  0  0  0
  7  8  4  0  0  0  0
  8  9  4  0  0  0  0
  9 10  4  0  0  0  0
 10 11  4  0  0  0  0
  6 11  4  0  0  0  0
M  END
> <activity>
44.22230313

> <InChiKey>
YQHLDYVWEZKEOX-UHFFFAOYSA-N

$$$$

  Mrv2220 08292413132D          

  3  2  0  0  0  0            999 V2000
    1.6500   -0.0000    0.0000 N   0  0  0  0  0  0  0  0  0  0  0  0
    2.4750   -0.0000    0.0000 C   0  0  0  0  0  0  0  0  0  0  0  0
    3.3000    0.0000    0.0000 N   0  0  0  0  0  0  0  0  0  0  0  0
  1  2  3  0  0  0  0
  2  3  1  0  0  0  0
M  END
> <activity>
3.603488484

> <InChiKey>
XZMCDFZZKTWFGF-UHFFFAOYSA-N

$$$$

  Mrv2220 08292413132D          

  6  5  0  0  0  0            999 V2000
    0.4125    2.1434    0.0000 N   0  0  0  0  0  0  0  0  0  0  0  0
    0.8250    1.4289    0.0000 C   0  0  0  0  0  0  0  0  0  0  0  0
    1.2375    0.7145    0.0000 N   0  0  0  0  0  0  0  0  0  0  0  0
    0.8250    0.0000    0.0000 C   0  0  0  0  0  0  0  0  0  0  0  0
    1.2375   -0.7145    0.0000 N   0  0  0  0  0  0  0  0  0  0  0  0
    0.0000    0.0000    0.0000 N   0  0  0  0  0  0  0  0  0  0  0  0
  1  2  3  0  0  0  0
  2  3  1  0  0  0  0
  3  4  1  0  0  0  0
  4  5  2  0  0  0  0
  4  6  1  0  0  0  0
M  END
> <activity>
10.84854327

> <InChiKey>
QGBSISYHAICWAH-UHFFFAOYSA-N

$$$$

  Mrv2220 08292413132D          

  9  9  0  0  0  0            999 V2000
    0.7145    2.0625    0.0000 O   0  0  0  0  0  0  0  0  0  0  0  0
    0.7145    1.2375    0.0000 C   0  0  0  0  0  0  0  0  0  0  0  0
    1.4289    0.8250    0.0000 N   0  0  0  0  0  0  0  0  0  0  0  0
    1.4289   -0.0000    0.0000 C   0  0  0  0  0  0  0  0  0  0  0  0
    2.1434   -0.4125    0.0000 O   0  0  0  0  0  0  0  0  0  0  0  0
    0.7145   -0.4125    0.0000 N   0  0  0  0  0  0  0  0  0  0  0  0
    0.0000    0.0000    0.0000 C   0  0  0  0  0  0  0  0  0  0  0  0
   -0.7145   -0.4125    0.0000 O   0  0  0  0  0  0  0  0  0  0  0  0
    0.0000    0.8250    0.0000 N   0  0  0  0  0  0  0  0  0  0  0  0
  1  2  1  0  0  0  0
  2  3  4  0  0  0  0
  3  4  4  0  0  0  0
  4  5  1  0  0  0  0
  4  6  4  0  0  0  0
  6  7  4  0  0  0  0
  7  8  1  0  0  0  0
  7  9  4  0  0  0  0
  2  9  4  0  0  0  0
M  END
> <activity>
8.176918199

> <InChiKey>
ZFSLODLOARCGLH-UHFFFAOYSA-N

$$$$

  Mrv2220 08292413132D          

  7  7  0  0  0  0            999 V2000
    0.7145    2.0625    0.0000 O   0  0  0  0  0  0  0  0  0  0  0  0
    0.7145    1.2375    0.0000 C   0  0  0  0  0  0  0  0  0  0  0  0
    1.4289    0.8250    0.0000 C   0  0  0  0  0  0  0  0  0  0  0  0
    1.4289   -0.0000    0.0000 C   0  0  0  0  0  0  0  0  0  0  0  0
    0.7145   -0.4125    0.0000 C   0  0  0  0  0  0  0  0  0  0  0  0
    0.0000    0.0000    0.0000 C   0  0  0  0  0  0  0  0  0  0  0  0
    0.0000    0.8250    0.0000 C   0  0  0  0  0  0  0  0  0  0  0  0
  1  2  1  0  0  0  0
  2  3  1  0  0  0  0
  3  4  1  0  0  0  0
  4  5  1  0  0  0  0
  5  6  1  0  0  0  0
  6  7  1  0  0  0  0
  2  7  1  0  0  0  0
M  END
> <activity>
5.818678081

> <InChiKey>
HPXRVTGHNJAIIH-UHFFFAOYSA-N

$$$$

  Mrv2220 08292413132D          

  6  6  0  0  0  0            999 V2000
    0.5678    1.9393    0.0000 O   0  0  0  0  0  0  0  0  0  0  0  0
    0.5678    1.1143    0.0000 C   0  0  0  0  0  0  0  0  0  0  0  0
    1.2352    0.6294    0.0000 C   0  0  0  0  0  0  0  0  0  0  0  0
    0.9803   -0.1553    0.0000 C   0  0  0  0  0  0  0  0  0  0  0  0
    0.1553   -0.1553    0.0000 C   0  0  0  0  0  0  0  0  0  0  0  0
   -0.0997    0.6294    0.0000 C   0  0  0  0  0  0  0  0  0  0  0  0
  1  2  1  0  0  0  0
  2  3  1  0  0  0  0
  3  4  1  0  0  0  0
  4  5  1  0  0  0  0
  5  6  1  0  0  0  0
  2  6  1  0  0  0  0
M  END
> <activity>
9.231420707

> <InChiKey>
XCIXKGXIYUWCLL-UHFFFAOYSA-N

$$$$

  Mrv2220 08292413132D          

 20 22  0  0  0  0            999 V2000
   -0.0467    1.6033    0.0000 C   0  0  0  0  0  0  0  0  0  0  0  0
   -0.7612    1.1908    0.0000 C   0  0  0  0  0  0  0  0  0  0  0  0
   -0.7612    0.3658    0.0000 C   0  0  0  0  0  0  0  0  0  0  0  0
   -0.3487   -0.3487    0.0000 C   0  0  0  0  0  0  0  0  0  0  0  0
   -1.1737   -0.3487    0.0000 C   0  0  0  0  0  0  0  0  0  0  0  0
   -1.4757    1.6033    0.0000 C   0  0  0  0  0  0  0  0  0  0  0  0
   -2.1901    2.0158    0.0000 O   0  0  0  0  0  0  0  0  0  0  0  0
   -1.0632    2.3178    0.0000 C   0  0  0  0  0  0  0  0  0  0  0  0
   -1.4757    3.0322    0.0000 N   0  0  0  0  0  0  0  0  0  0  0  0
   -2.2961    3.1185    0.0000 C   0  0  0  0  0  0  0  0  0  0  0  0
   -2.4677    3.9254    0.0000 N   0  0  0  0  0  0  0  0  0  0  0  0
   -1.7532    4.3379    0.0000 C   0  0  0  0  0  0  0  0  0  0  0  0
   -1.1401    3.7859    0.0000 N   0  0  0  0  0  0  0  0  0  0  0  0
   -1.8882    0.8888    0.0000 C   0  0  0  0  0  0  0  0  0  0  0  0
   -1.4757    0.1743    0.0000 C   0  0  0  0  0  0  0  0  0  0  0  0
   -1.8882   -0.5401    0.0000 C   0  0  0  0  0  0  0  0  0  0  0  0
   -2.7132   -0.5401    0.0000 C   0  0  0  0  0  0  0  0  0  0  0  0
   -3.1257   -1.2546    0.0000 Cl  0  0  0  0  0  0  0  0  0  0  0  0
   -3.1257    0.1743    0.0000 C   0  0  0  0  0  0  0  0  0  0  0  0
   -2.7132    0.8888    0.0000 C   0  0  0  0  0  0  0  0  0  0  0  0
  1  2  1  0  0  0  0
  2  3  1  0  0  0  0
  3  4  1  0  0  0  0
  4  5  1  0  0  0  0
  3  5  1  0  0  0  0
  2  6  1  0  0  0  0
  6  7  1  0  0  0  0
  6  8  1  0  0  0  0
  8  9  1  0  0  0  0
  9 10  4  0  0  0  0
 10 11  4  0  0  0  0
 11 12  4  0  0  0  0
 12 13  4  0  0  0  0
  9 13  4  0  0  0  0
  6 14  1  0  0  0  0
 14 15  4  0  0  0  0
 15 16  4  0  0  0  0
 16 17  4  0  0  0  0
 17 18  1  0  0  0  0
 17 19  4  0  0  0  0
 19 20  4  0  0  0  0
 14 20  4  0  0  0  0
M  END
> <activity>
44.1124534

> <InChiKey>
UFNOUKDBUJZYDE-UHFFFAOYSA-N

$$$$

  Mrv2220 08292413132D          

 29 33  0  0  0  0            999 V2000
    3.1697   -4.7587    0.0000 C   0  0  0  0  0  0  0  0  0  0  0  0
    2.9152   -3.9739    0.0000 C   0  0  0  0  0  0  0  0  0  0  0  0
    2.1084   -3.8019    0.0000 O   0  0  0  0  0  0  0  0  0  0  0  0
    3.4676   -3.3612    0.0000 O   0  0  0  0  0  0  0  0  0  0  0  0
    3.2132   -2.5764    0.0000 C   0  0  0  0  0  0  0  0  0  0  0  0
    2.4593   -2.9115    0.0000 C   0  0  0  0  0  0  0  0  0  0  0  0
    1.7921   -2.4262    0.0000 C   0  0  0  0  0  0  0  0  0  0  0  0
    1.9069   -3.5242    0.0000 O   0  0  0  0  0  0  0  0  0  0  0  0
    2.8011   -1.8617    0.0000 C   0  0  0  0  0  0  0  0  0  0  0  0
    3.3535   -1.2489    0.0000 C   0  0  0  0  0  0  0  0  0  0  0  0
    4.1070   -1.5849    0.0000 C   0  0  0  0  0  0  0  0  0  0  0  0
    4.8609   -1.2498    0.0000 C   0  0  0  0  0  0  0  0  0  0  0  0
    4.9476   -0.4294    0.0000 C   0  0  0  0  0  0  0  0  0  0  0  0
    5.7015   -0.0943    0.0000 C   0  0  0  0  0  0  0  0  0  0  0  0
    5.7882    0.7261    0.0000 Cl  0  0  0  0  0  0  0  0  0  0  0  0
    6.3686   -0.5796    0.0000 C   0  0  0  0  0  0  0  0  0  0  0  0
    7.1225   -0.2445    0.0000 C   0  0  0  0  0  0  0  0  0  0  0  0
    7.7896   -0.7298    0.0000 C   0  0  0  0  0  0  0  0  0  0  0  0
    8.5435   -0.3947    0.0000 O   0  0  0  0  0  0  0  0  0  0  0  0
    7.7029   -1.5503    0.0000 C   0  0  0  0  0  0  0  0  0  0  0  0
    7.6162   -2.3707    0.0000 C   0  0  0  0  0  0  0  0  0  0  0  0
    6.9490   -1.8854    0.0000 C   0  0  0  0  0  0  0  0  0  0  0  0
    6.2819   -1.4000    0.0000 C   0  0  0  0  0  0  0  0  0  0  0  0
    6.1951   -2.2205    0.0000 C   0  0  0  0  0  0  0  0  0  0  0  0
    5.5280   -1.7351    0.0000 C   0  0  0  0  0  0  0  0  0  0  0  0
    5.4413   -2.5556    0.0000 C   0  0  0  0  0  0  0  0  0  0  0  0
    4.6874   -2.8907    0.0000 C   0  0  0  0  0  0  0  0  0  0  0  0
    4.0202   -2.4053    0.0000 C   0  0  0  0  0  0  0  0  0  0  0  0
    3.8482   -3.2122    0.0000 C   0  0  0  0  0  0  0  0  0  0  0  0
  1  2  1  0  0  0  0
  2  3  2  0  0  0  0
  2  4  1  0  0  0  0
  4  5  1  0  0  0  0
  5  6  1  0  0  0  0
  6  7  1  0  0  0  0
  6  8  2  0  0  0  0
  5  9  1  0  0  0  0
  9 10  1  0  0  0  0
 10 11  1  0  0  0  0
 11 12  1  0  0  0  0
 12 13  1  0  0  0  0
 13 14  2  0  0  0  0
 14 15  1  0  0  0  0
 14 16  1  0  0  0  0
 16 17  2  0  0  0  0
 17 18  1  0  0  0  0
 18 19  2  0  0  0  0
 18 20  1  0  0  0  0
 20 21  1  0  0  0  0
 21 22  1  0  0  0  0
 20 22  1  0  0  0  0
 22 23  1  0  0  0  0
 16 23  1  0  0  0  0
 23 24  1  0  0  0  0
 23 25  1  0  0  0  0
 12 25  1  0  0  0  0
 25 26  1  0  0  0  0
 26 27  1  0  0  0  0
 27 28  1  0  0  0  0
 11 28  1  0  0  0  0
  5 28  1  0  0  0  0
 28 29  1  0  0  0  0
M  END
> <activity>
8.734220403

> <InChiKey>
UWFYSQMTEOIJJG-UHFFFAOYSA-N

$$$$

  Mrv2220 08292413132D          

 22 22  0  0  0  0            999 V2000
    2.1434   -6.1875    0.0000 C   0  0  0  0  0  0  0  0  0  0  0  0
    2.8579   -6.6000    0.0000 C   0  0  0  0  0  0  0  0  0  0  0  0
    3.5724   -6.1875    0.0000 C   0  0  0  0  0  0  0  0  0  0  0  0
    4.2868   -6.6000    0.0000 C   0  0  0  0  0  0  0  0  0  0  0  0
    5.0013   -6.1875    0.0000 C   0  0  0  0  0  0  0  0  0  0  0  0
    5.7158   -6.6000    0.0000 C   0  0  0  0  0  0  0  0  0  0  0  0
    6.4302   -6.1875    0.0000 C   0  0  0  0  0  0  0  0  0  0  0  0
    7.1447   -6.6000    0.0000 C   0  0  0  0  0  0  0  0  0  0  0  0
    7.8592   -6.1875    0.0000 C   0  0  0  0  0  0  0  0  0  0  0  0
    8.5737   -6.6000    0.0000 C   0  0  0  0  0  0  0  0  0  0  0  0
    9.2881   -6.1875    0.0000 O   0  0  0  0  0  0  0  0  0  0  0  0
   10.0026   -6.6000    0.0000 C   0  0  0  0  0  0  0  0  0  0  0  0
   10.7171   -6.1875    0.0000 O   0  0  0  0  0  0  0  0  0  0  0  0
   11.4315   -6.6000    0.0000 C   0  0  0  0  0  0  0  0  0  0  0  0
   12.1460   -6.1875    0.0000 C   0  0  0  0  0  0  0  0  0  0  0  0
   12.1460   -5.3625    0.0000 O   0  0  0  0  0  0  0  0  0  0  0  0
   11.4315   -7.4250    0.0000 C   0  0  0  0  0  0  0  0  0  0  0  0
   12.1460   -7.8375    0.0000 O   0  0  0  0  0  0  0  0  0  0  0  0
   10.7171   -7.8375    0.0000 C   0  0  0  0  0  0  0  0  0  0  0  0
   10.7171   -8.6625    0.0000 O   0  0  0  0  0  0  0  0  0  0  0  0
   10.0026   -7.4250    0.0000 C   0  0  0  0  0  0  0  0  0  0  0  0
    9.2881   -7.8375    0.0000 O   0  0  0  0  0  0  0  0  0  0  0  0
  1  2  1  0  0  0  0
  2  3  1  0  0  0  0
  3  4  1  0  0  0  0
  4  5  1  0  0  0  0
  5  6  1  0  0  0  0
  6  7  1  0  0  0  0
  7  8  1  0  0  0  0
  8  9  1  0  0  0  0
  9 10  1  0  0  0  0
 10 11  1  0  0  0  0
 11 12  1  0  0  0  0
 12 13  1  0  0  0  0
 13 14  1  0  0  0  0
 14 15  1  0  0  0  0
 15 16  1  0  0  0  0
 14 17  1  0  0  0  0
 17 18  1  0  0  0  0
 17 19  1  0  0  0  0
 19 20  1  0  0  0  0
 19 21  1  0  0  0  0
 12 21  1  0  0  0  0
 21 22  1  0  0  0  0
M  END
> <activity>
60.44092833

> <InChiKey>
JDRSMPFHFNXQRB-UHFFFAOYSA-N

$$$$

  Mrv2220 08292413132D          

  5  4  0  0  0  0            999 V2000
    1.6500    1.4289    0.0000 N   0  0  0  0  0  0  0  0  0  0  0  0
    1.2375    0.7145    0.0000 C   0  0  0  0  0  0  0  0  0  0  0  0
    0.8250    0.0000    0.0000 C   0  0  0  0  0  0  0  0  0  0  0  0
    1.2375   -0.7145    0.0000 Br  0  0  0  0  0  0  0  0  0  0  0  0
    0.0000    0.0000    0.0000 Br  0  0  0  0  0  0  0  0  0  0  0  0
  1  2  3  0  0  0  0
  2  3  1  0  0  0  0
  3  4  1  0  0  0  0
  3  5  1  0  0  0  0
M  END
> <activity>
-2.603174603

> <InChiKey>
NDSBDLSWTGLNQA-UHFFFAOYSA-N

$$$$

  Mrv2220 08292413132D          

 14 15  0  0  0  0            999 V2000
    1.4289   -2.4750    0.0000 O   0  0  0  0  0  0  0  0  0  0  0  0
    1.4289   -1.6500    0.0000 C   0  0  0  0  0  0  0  0  0  0  0  0
    0.7145   -1.2375    0.0000 C   0  0  0  0  0  0  0  0  0  0  0  0
    0.0000   -1.6500    0.0000 Cl  0  0  0  0  0  0  0  0  0  0  0  0
    0.7145   -0.4125    0.0000 C   0  0  0  0  0  0  0  0  0  0  0  0
    0.0000    0.0000    0.0000 Cl  0  0  0  0  0  0  0  0  0  0  0  0
    1.4289    0.0000    0.0000 C   0  0  0  0  0  0  0  0  0  0  0  0
    1.4289    0.8250    0.0000 O   0  0  0  0  0  0  0  0  0  0  0  0
    2.1434   -0.4125    0.0000 C   0  0  0  0  0  0  0  0  0  0  0  0
    2.8579    0.0000    0.0000 C   0  0  0  0  0  0  0  0  0  0  0  0
    3.5724   -0.4125    0.0000 C   0  0  0  0  0  0  0  0  0  0  0  0
    3.5724   -1.2375    0.0000 C   0  0  0  0  0  0  0  0  0  0  0  0
    2.8579   -1.6500    0.0000 C   0  0  0  0  0  0  0  0  0  0  0  0
    2.1434   -1.2375    0.0000 C   0  0  0  0  0  0  0  0  0  0  0  0
  1  2  2  0  0  0  0
  2  3  1  0  0  0  0
  3  4  1  0  0  0  0
  3  5  2  0  0  0  0
  5  6  1  0  0  0  0
  5  7  1  0  0  0  0
  7  8  2  0  0  0  0
  7  9  1  0  0  0  0
  9 10  4  0  0  0  0
 10 11  4  0  0  0  0
 11 12  4  0  0  0  0
 12 13  4  0  0  0  0
 13 14  4  0  0  0  0
  9 14  4  0  0  0  0
  2 14  1  0  0  0  0
M  END
> <activity>
92.68395403

> <InChiKey>
SVPKNMBRVBMTLB-UHFFFAOYSA-N

$$$$

  Mrv2220 08292413132D          

  6  5  0  0  0  0            999 V2000
    0.8250    1.4289    0.0000 O   0  0  0  0  0  0  0  0  0  0  0  0
    1.2375    0.7145    0.0000 C   0  0  0  0  0  0  0  0  0  0  0  0
    2.0625    0.7145    0.0000 O   0  0  0  0  0  0  0  0  0  0  0  0
    0.8250    0.0000    0.0000 C   0  0  0  0  0  0  0  0  0  0  0  0
    1.2375   -0.7145    0.0000 Cl  0  0  0  0  0  0  0  0  0  0  0  0
    0.0000    0.0000    0.0000 Cl  0  0  0  0  0  0  0  0  0  0  0  0
  1  2  2  0  0  0  0
  2  3  1  0  0  0  0
  2  4  1  0  0  0  0
  4  5  1  0  0  0  0
  4  6  1  0  0  0  0
M  END
> <activity>
10.35384463

> <InChiKey>
JXTHNDFMNIQAHM-UHFFFAOYSA-N

$$$$

  Mrv2220 08292413132D          

 15 14  0  0  0  0            999 V2000
    3.3000    1.4289    0.0000 C   0  0  0  0  0  0  0  0  0  0  0  0
    2.8875    0.7145    0.0000 O   0  0  0  0  0  0  0  0  0  0  0  0
    2.0625    0.7145    0.0000 P   0  0  0  0  0  0  0  0  0  0  0  0
    2.0625    1.5395    0.0000 O   0  0  0  0  0  0  0  0  0  0  0  0
    2.0625   -0.1105    0.0000 O   0  0  0  0  0  0  0  0  0  0  0  0
    2.7770   -0.5230    0.0000 C   0  0  0  0  0  0  0  0  0  0  0  0
    1.2375    0.7145    0.0000 O   0  0  0  0  0  0  0  0  0  0  0  0
    0.8250    0.0000    0.0000 C   0  0  0  0  0  0  0  0  0  0  0  0
    1.2375   -0.7145    0.0000 C   0  0  0  0  0  0  0  0  0  0  0  0
    0.0000    0.0000    0.0000 C   0  0  0  0  0  0  0  0  0  0  0  0
   -0.4125   -0.7145    0.0000 C   0  0  0  0  0  0  0  0  0  0  0  0
    0.0000   -1.4289    0.0000 O   0  0  0  0  0  0  0  0  0  0  0  0
   -1.2375   -0.7145    0.0000 N   0  0  0  0  0  0  0  0  0  0  0  0
   -1.6500   -1.4289    0.0000 C   0  0  0  0  0  0  0  0  0  0  0  0
   -1.6500    0.0000    0.0000 C   0  0  0  0  0  0  0  0  0  0  0  0
  1  2  1  0  0  0  0
  2  3  1  0  0  0  0
  3  4  2  0  0  0  0
  3  5  1  0  0  0  0
  5  6  1  0  0  0  0
  3  7  1  0  0  0  0
  7  8  1  0  0  0  0
  8  9  1  0  0  0  0
  8 10  2  0  0  0  0
 10 11  1  4  0  0  0
 11 12  2  0  0  0  0
 11 13  1  0  0  0  0
 13 14  1  0  0  0  0
 13 15  1  0  0  0  0
M  END
> <activity>
8.167667941

> <InChiKey>
VEENJGZXVHKXNB-UHFFFAOYSA-N

$$$$

  Mrv2220 08292413132D          

 11 10  0  0  0  0            999 V2000
    2.9980    2.5559    0.0000 C   0  0  0  0  0  0  0  0  0  0  0  0
    3.7125    2.1434    0.0000 C   0  0  0  0  0  0  0  0  0  0  0  0
    4.4270    2.5559    0.0000 O   0  0  0  0  0  0  0  0  0  0  0  0
    5.1414    2.1434    0.0000 C   0  0  0  0  0  0  0  0  0  0  0  0
    5.1414    1.3184    0.0000 O   0  0  0  0  0  0  0  0  0  0  0  0
    5.8559    2.5559    0.0000 C   0  0  0  0  0  0  0  0  0  0  0  0
    6.5704    2.1434    0.0000 C   0  0  0  0  0  0  0  0  0  0  0  0
    6.5704    1.3184    0.0000 O   0  0  0  0  0  0  0  0  0  0  0  0
    7.2849    2.5559    0.0000 O   0  0  0  0  0  0  0  0  0  0  0  0
    7.9993    2.1434    0.0000 C   0  0  0  0  0  0  0  0  0  0  0  0
    8.7138    2.5559    0.0000 C   0  0  0  0  0  0  0  0  0  0  0  0
  1  2  1  0  0  0  0
  2  3  1  0  0  0  0
  3  4  1  0  0  0  0
  4  5  2  0  0  0  0
  4  6  1  0  0  0  0
  6  7  1  0  0  0  0
  7  8  2  0  0  0  0
  7  9  1  0  0  0  0
  9 10  1  0  0  0  0
 10 11  1  0  0  0  0
M  END
> <activity>
8.336183576

> <InChiKey>
IYXGSMUGOJNHAZ-UHFFFAOYSA-N

$$$$

  Mrv2220 08292413132D          

  9  8  0  0  0  0            999 V2000
    2.9980    2.5559    0.0000 C   0  0  0  0  0  0  0  0  0  0  0  0
    3.7125    2.1434    0.0000 O   0  0  0  0  0  0  0  0  0  0  0  0
    4.4270    2.5559    0.0000 C   0  0  0  0  0  0  0  0  0  0  0  0
    5.1414    2.1434    0.0000 C   0  0  0  0  0  0  0  0  0  0  0  0
    5.8559    2.5559    0.0000 O   0  0  0  0  0  0  0  0  0  0  0  0
    6.5704    2.1434    0.0000 C   0  0  0  0  0  0  0  0  0  0  0  0
    7.2849    2.5559    0.0000 C   0  0  0  0  0  0  0  0  0  0  0  0
    7.9993    2.1434    0.0000 O   0  0  0  0  0  0  0  0  0  0  0  0
    8.7138    2.5559    0.0000 C   0  0  0  0  0  0  0  0  0  0  0  0
  1  2  1  0  0  0  0
  2  3  1  0  0  0  0
  3  4  1  0  0  0  0
  4  5  1  0  0  0  0
  5  6  1  0  0  0  0
  6  7  1  0  0  0  0
  7  8  1  0  0  0  0
  8  9  1  0  0  0  0
M  END
> <activity>
7.092547596

> <InChiKey>
SBZXBUIDTXKZTM-UHFFFAOYSA-N

$$$$

  Mrv2220 08292413132D          

 27 29  0  0  0  0            999 V2000
   -1.4289   -0.0000    0.0000 C   0  0  0  0  0  0  0  0  0  0  0  0
   -0.7145   -0.4125    0.0000 O   0  0  0  0  0  0  0  0  0  0  0  0
   -0.7145   -1.2375    0.0000 C   0  0  0  0  0  0  0  0  0  0  0  0
    0.0000   -1.6500    0.0000 C   0  0  0  0  0  0  0  0  0  0  0  0
    0.0000   -2.4750    0.0000 C   0  0  0  0  0  0  0  0  0  0  0  0
   -0.7145   -2.8875    0.0000 C   0  0  0  0  0  0  0  0  0  0  0  0
   -0.7145   -3.7125    0.0000 C   0  0  0  0  0  0  0  0  0  0  0  0
   -1.4289   -4.1250    0.0000 C   0  0  0  0  0  0  0  0  0  0  0  0
   -1.4289   -4.9500    0.0000 C   0  0  0  0  0  0  0  0  0  0  0  0
   -0.7145   -5.3625    0.0000 O   0  0  0  0  0  0  0  0  0  0  0  0
   -2.1434   -5.3625    0.0000 N   0  0  0  0  0  0  0  0  0  0  0  0
   -2.1434   -6.1875    0.0000 C   0  0  0  0  0  0  0  0  0  0  0  0
   -2.8579   -6.6000    0.0000 C   0  0  0  0  0  0  0  0  0  0  0  0
   -3.5724   -6.1875    0.0000 O   0  0  0  0  0  0  0  0  0  0  0  0
   -3.5724   -5.3625    0.0000 C   0  0  0  0  0  0  0  0  0  0  0  0
   -2.8579   -4.9500    0.0000 C   0  0  0  0  0  0  0  0  0  0  0  0
    0.0000   -4.1250    0.0000 C   0  0  0  0  0  0  0  0  0  0  0  0
    0.7145   -3.7125    0.0000 C   0  0  0  0  0  0  0  0  0  0  0  0
    1.4289   -4.1250    0.0000 C   0  0  0  0  0  0  0  0  0  0  0  0
    1.4289   -4.9500    0.0000 C   0  0  0  0  0  0  0  0  0  0  0  0
    2.1434   -5.3625    0.0000 Cl  0  0  0  0  0  0  0  0  0  0  0  0
    0.7145   -5.3625    0.0000 C   0  0  0  0  0  0  0  0  0  0  0  0
    0.0000   -4.9500    0.0000 C   0  0  0  0  0  0  0  0  0  0  0  0
   -1.4289   -2.4750    0.0000 C   0  0  0  0  0  0  0  0  0  0  0  0
   -1.4289   -1.6500    0.0000 C   0  0  0  0  0  0  0  0  0  0  0  0
   -2.1434   -1.2375    0.0000 O   0  0  0  0  0  0  0  0  0  0  0  0
   -2.1434   -0.4125    0.0000 C   0  0  0  0  0  0  0  0  0  0  0  0
  1  2  1  0  0  0  0
  2  3  1  0  0  0  0
  3  4  4  0  0  0  0
  4  5  4  0  0  0  0
  5  6  4  0  0  0  0
  6  7  1  0  0  0  0
  7  8  2  0  0  0  0
  8  9  1  4  0  0  0
  9 10  2  0  0  0  0
  9 11  1  0  0  0  0
 11 12  1  0  0  0  0
 12 13  1  0  0  0  0
 13 14  1  0  0  0  0
 14 15  1  0  0  0  0
 15 16  1  0  0  0  0
 11 16  1  0  0  0  0
  7 17  1  0  0  0  0
 17 18  4  0  0  0  0
 18 19  4  0  0  0  0
 19 20  4  0  0  0  0
 20 21  1  0  0  0  0
 20 22  4  0  0  0  0
 22 23  4  0  0  0  0
 17 23  4  0  0  0  0
  6 24  4  0  0  0  0
 24 25  4  0  0  0  0
  3 25  4  0  0  0  0
 25 26  1  0  0  0  0
 26 27  1  0  0  0  0
M  END
> <activity>
32.11592903

> <InChiKey>
QNBTYORWCCMPQP-UHFFFAOYSA-N

$$$$

  Mrv2220 08292413132D          

  6  5  0  0  0  0            999 V2000
    2.4750   -1.4289    0.0000 C   0  0  0  0  0  0  0  0  0  0  0  0
    2.0625   -0.7145    0.0000 O   0  0  0  0  0  0  0  0  0  0  0  0
    1.2375   -0.7145    0.0000 P   0  0  0  0  0  0  0  0  0  0  0  0
    0.8250   -1.4289    0.0000 O   0  0  0  0  0  0  0  0  0  0  0  0
    0.8250    0.0000    0.0000 O   0  0  0  0  0  0  0  0  0  0  0  0
    0.0000    0.0000    0.0000 C   0  0  0  0  0  0  0  0  0  0  0  0
  1  2  1  0  0  0  0
  2  3  1  0  0  0  0
  3  4  2  0  0  0  0
  3  5  1  0  0  0  0
  5  6  1  0  0  0  0
M  END
> <activity>
11.10342729

> <InChiKey>
HZCDANOFLILNSA-UHFFFAOYSA-N

$$$$

  Mrv2220 08292413132D          

  3  2  0  0  0  0            999 V2000
    1.2375   -0.7145    0.0000 C   0  0  0  0  0  0  0  0  0  0  0  0
    1.9520   -1.1270    0.0000 N   0  0  0  0  0  0  0  0  0  0  0  0
    2.6664   -0.7145    0.0000 C   0  0  0  0  0  0  0  0  0  0  0  0
  1  2  1  0  0  0  0
  2  3  1  0  0  0  0
M  END
> <activity>
2.714483852

> <InChiKey>
ROSDSFDQCJNGOL-UHFFFAOYSA-N

$$$$

  Mrv2220 08292413132D          

 30 29  0  0  0  0            999 V2000
   13.4211    8.5737    0.0000 C   0  0  0  0  0  0  0  0  0  0  0  0
   14.1355    8.9862    0.0000 C   0  0  0  0  0  0  0  0  0  0  0  0
   14.8500    8.5737    0.0000 C   0  0  0  0  0  0  0  0  0  0  0  0
   15.5645    8.9862    0.0000 C   0  0  0  0  0  0  0  0  0  0  0  0
   16.2789    8.5737    0.0000 C   0  0  0  0  0  0  0  0  0  0  0  0
   16.9934    8.9862    0.0000 C   0  0  0  0  0  0  0  0  0  0  0  0
   17.7079    8.5737    0.0000 C   0  0  0  0  0  0  0  0  0  0  0  0
   18.4224    8.9862    0.0000 C   0  0  0  0  0  0  0  0  0  0  0  0
   19.1368    8.5737    0.0000 O   0  0  0  0  0  0  0  0  0  0  0  0
   19.8513    8.9862    0.0000 C   0  0  0  0  0  0  0  0  0  0  0  0
   19.8513    9.8112    0.0000 O   0  0  0  0  0  0  0  0  0  0  0  0
   20.5658    8.5737    0.0000 C   0  0  0  0  0  0  0  0  0  0  0  0
   21.2802    8.9862    0.0000 C   0  0  0  0  0  0  0  0  0  0  0  0
   21.9947    8.5737    0.0000 C   0  0  0  0  0  0  0  0  0  0  0  0
   22.7092    8.9862    0.0000 C   0  0  0  0  0  0  0  0  0  0  0  0
   23.4237    8.5737    0.0000 C   0  0  0  0  0  0  0  0  0  0  0  0
   24.1381    8.9862    0.0000 C   0  0  0  0  0  0  0  0  0  0  0  0
   24.8526    8.5737    0.0000 C   0  0  0  0  0  0  0  0  0  0  0  0
   25.5671    8.9862    0.0000 C   0  0  0  0  0  0  0  0  0  0  0  0
   26.2815    8.5737    0.0000 C   0  0  0  0  0  0  0  0  0  0  0  0
   26.2815    7.7487    0.0000 O   0  0  0  0  0  0  0  0  0  0  0  0
   26.9960    8.9862    0.0000 O   0  0  0  0  0  0  0  0  0  0  0  0
   27.7105    8.5737    0.0000 C   0  0  0  0  0  0  0  0  0  0  0  0
   28.4249    8.9862    0.0000 C   0  0  0  0  0  0  0  0  0  0  0  0
   29.1394    8.5737    0.0000 C   0  0  0  0  0  0  0  0  0  0  0  0
   29.8539    8.9862    0.0000 C   0  0  0  0  0  0  0  0  0  0  0  0
   30.5684    8.5737    0.0000 C   0  0  0  0  0  0  0  0  0  0  0  0
   31.2828    8.9862    0.0000 C   0  0  0  0  0  0  0  0  0  0  0  0
   31.9973    8.5737    0.0000 C   0  0  0  0  0  0  0  0  0  0  0  0
   32.7118    8.9862    0.0000 C   0  0  0  0  0  0  0  0  0  0  0  0
  1  2  1  0  0  0  0
  2  3  1  0  0  0  0
  3  4  1  0  0  0  0
  4  5  1  0  0  0  0
  5  6  1  0  0  0  0
  6  7  1  0  0  0  0
  7  8  1  0  0  0  0
  8  9  1  0  0  0  0
  9 10  1  0  0  0  0
 10 11  2  0  0  0  0
 10 12  1  0  0  0  0
 12 13  1  0  0  0  0
 13 14  1  0  0  0  0
 14 15  1  0  0  0  0
 15 16  1  0  0  0  0
 16 17  1  0  0  0  0
 17 18  1  0  0  0  0
 18 19  1  0  0  0  0
 19 20  1  0  0  0  0
 20 21  2  0  0  0  0
 20 22  1  0  0  0  0
 22 23  1  0  0  0  0
 23 24  1  0  0  0  0
 24 25  1  0  0  0  0
 25 26  1  0  0  0  0
 26 27  1  0  0  0  0
 27 28  1  0  0  0  0
 28 29  1  0  0  0  0
 29 30  1  0  0  0  0
M  END
> <activity>
14.46575501

> <InChiKey>
MIMDHDXOBDPUQW-UHFFFAOYSA-N

$$$$

  Mrv2220 08292413132D          

 18 19  0  0  0  0            999 V2000
    0.7145   -1.2375    0.0000 C   0  0  0  0  0  0  0  0  0  0  0  0
    0.7145   -0.4125    0.0000 N   0  0  0  0  0  0  0  0  0  0  0  0
    0.0000   -0.0000    0.0000 C   0  0  0  0  0  0  0  0  0  0  0  0
    1.4289    0.0000    0.0000 C   0  0  0  0  0  0  0  0  0  0  0  0
    1.4289    0.8250    0.0000 O   0  0  0  0  0  0  0  0  0  0  0  0
    2.1434   -0.4125    0.0000 C   0  0  0  0  0  0  0  0  0  0  0  0
    2.1434   -1.2375    0.0000 C   0  0  0  0  0  0  0  0  0  0  0  0
    2.8579   -1.6500    0.0000 C   0  0  0  0  0  0  0  0  0  0  0  0
    2.8579   -2.4750    0.0000 C   0  0  0  0  0  0  0  0  0  0  0  0
    2.1434   -2.8875    0.0000 C   0  0  0  0  0  0  0  0  0  0  0  0
    1.4289   -2.4750    0.0000 C   0  0  0  0  0  0  0  0  0  0  0  0
    1.4289   -1.6500    0.0000 C   0  0  0  0  0  0  0  0  0  0  0  0
    2.8579    0.0000    0.0000 C   0  0  0  0  0  0  0  0  0  0  0  0
    2.8579    0.8250    0.0000 C   0  0  0  0  0  0  0  0  0  0  0  0
    3.5724    1.2375    0.0000 C   0  0  0  0  0  0  0  0  0  0  0  0
    4.2868    0.8250    0.0000 C   0  0  0  0  0  0  0  0  0  0  0  0
    4.2868    0.0000    0.0000 C   0  0  0  0  0  0  0  0  0  0  0  0
    3.5724   -0.4125    0.0000 C   0  0  0  0  0  0  0  0  0  0  0  0
  1  2  1  0  0  0  0
  2  3  1  0  0  0  0
  2  4  1  0  0  0  0
  4  5  2  0  0  0  0
  4  6  1  0  0  0  0
  6  7  1  0  0  0  0
  7  8  4  0  0  0  0
  8  9  4  0  0  0  0
  9 10  4  0  0  0  0
 10 11  4  0  0  0  0
 11 12  4  0  0  0  0
  7 12  4  0  0  0  0
  6 13  1  0  0  0  0
 13 14  4  0  0  0  0
 14 15  4  0  0  0  0
 15 16  4  0  0  0  0
 16 17  4  0  0  0  0
 17 18  4  0  0  0  0
 13 18  4  0  0  0  0
M  END
> <activity>
8.21650457

> <InChiKey>
QAHFOPIILNICLA-UHFFFAOYSA-N

$$$$

  Mrv2220 08292413132D          

 11 10  0  0  0  0            999 V2000
    3.7125   -2.1434    0.0000 C   0  0  0  0  0  0  0  0  0  0  0  0
    3.3000   -1.4289    0.0000 C   0  0  0  0  0  0  0  0  0  0  0  0
    2.4750   -1.4289    0.0000 Si  0  0  0  0  0  0  0  0  0  0  0  0
    2.4750   -0.6039    0.0000 C   0  0  0  0  0  0  0  0  0  0  0  0
    2.4750   -2.2539    0.0000 C   0  0  0  0  0  0  0  0  0  0  0  0
    1.6500   -1.4289    0.0000 O   0  0  0  0  0  0  0  0  0  0  0  0
    1.2375   -0.7145    0.0000 Si  0  0  0  0  0  0  0  0  0  0  0  0
    1.9520   -0.3020    0.0000 C   0  0  0  0  0  0  0  0  0  0  0  0
    0.5230   -1.1270    0.0000 C   0  0  0  0  0  0  0  0  0  0  0  0
    0.8250    0.0000    0.0000 C   0  0  0  0  0  0  0  0  0  0  0  0
    0.0000    0.0000    0.0000 C   0  0  0  0  0  0  0  0  0  0  0  0
  1  2  2  0  0  0  0
  2  3  1  0  0  0  0
  3  4  1  0  0  0  0
  3  5  1  0  0  0  0
  3  6  1  0  0  0  0
  6  7  1  0  0  0  0
  7  8  1  0  0  0  0
  7  9  1  0  0  0  0
  7 10  1  0  0  0  0
 10 11  2  0  0  0  0
M  END
> <activity>
10.80857354

> <InChiKey>
BITPLIXHRASDQB-UHFFFAOYSA-N

$$$$

  Mrv2220 08292413132D          

 14 13  0  0  0  0            999 V2000
    5.4730    3.9849    0.0000 C   0  0  0  0  0  0  0  0  0  0  0  0
    6.1875    3.5724    0.0000 C   0  0  0  0  0  0  0  0  0  0  0  0
    6.9020    3.9849    0.0000 C   0  0  0  0  0  0  0  0  0  0  0  0
    7.6164    3.5724    0.0000 C   0  0  0  0  0  0  0  0  0  0  0  0
    8.3309    3.9849    0.0000 C   0  0  0  0  0  0  0  0  0  0  0  0
    9.0454    3.5724    0.0000 C   0  0  0  0  0  0  0  0  0  0  0  0
    9.7599    3.9849    0.0000 C   0  0  0  0  0  0  0  0  0  0  0  0
   10.4743    3.5724    0.0000 C   0  0  0  0  0  0  0  0  0  0  0  0
   11.1888    3.9849    0.0000 C   0  0  0  0  0  0  0  0  0  0  0  0
   11.9033    3.5724    0.0000 C   0  0  0  0  0  0  0  0  0  0  0  0
   12.6177    3.9849    0.0000 C   0  0  0  0  0  0  0  0  0  0  0  0
   13.3322    3.5724    0.0000 C   0  0  0  0  0  0  0  0  0  0  0  0
   14.0467    3.9849    0.0000 O   0  0  0  0  0  0  0  0  0  0  0  0
   13.3322    2.7474    0.0000 O   0  0  0  0  0  0  0  0  0  0  0  0
  1  2  1  0  0  0  0
  2  3  1  0  0  0  0
  3  4  1  0  0  0  0
  4  5  1  0  0  0  0
  5  6  1  0  0  0  0
  6  7  1  0  0  0  0
  7  8  1  0  0  0  0
  8  9  1  0  0  0  0
  9 10  1  0  0  0  0
 10 11  1  0  0  0  0
 11 12  1  0  0  0  0
 12 13  2  0  0  0  0
 12 14  1  0  0  0  0
M  END
> <activity>
98.94099567

> <InChiKey>
POULHZVOKOAJMA-UHFFFAOYSA-N

$$$$

  Mrv2220 08292413132D          

 18 21  0  0  0  0            999 V2000
    4.2868    1.6500    0.0000 O   0  0  0  0  0  0  0  0  0  0  0  0
    3.5724    2.0625    0.0000 C   0  0  0  0  0  0  0  0  0  0  0  0
    3.5724    2.8875    0.0000 O   0  0  0  0  0  0  0  0  0  0  0  0
    4.2868    3.3000    0.0000 C   0  0  0  0  0  0  0  0  0  0  0  0
    4.2868    4.1250    0.0000 C   0  0  0  0  0  0  0  0  0  0  0  0
    3.5724    4.5375    0.0000 C   0  0  0  0  0  0  0  0  0  0  0  0
    3.5724    5.3625    0.0000 C   0  0  0  0  0  0  0  0  0  0  0  0
    4.2868    5.7750    0.0000 C   0  0  0  0  0  0  0  0  0  0  0  0
    5.0013    6.1875    0.0000 O   0  0  0  0  0  0  0  0  0  0  0  0
    5.0013    5.3625    0.0000 C   0  0  0  0  0  0  0  0  0  0  0  0
    5.0013    4.5375    0.0000 C   0  0  0  0  0  0  0  0  0  0  0  0
    2.8579    1.6500    0.0000 C   0  0  0  0  0  0  0  0  0  0  0  0
    2.8579    0.8250    0.0000 C   0  0  0  0  0  0  0  0  0  0  0  0
    2.1434    0.4125    0.0000 C   0  0  0  0  0  0  0  0  0  0  0  0
    1.4289    0.8250    0.0000 C   0  0  0  0  0  0  0  0  0  0  0  0
    0.7145    1.2375    0.0000 O   0  0  0  0  0  0  0  0  0  0  0  0
    1.4289    1.6500    0.0000 C   0  0  0  0  0  0  0  0  0  0  0  0
    2.1434    2.0625    0.0000 C   0  0  0  0  0  0  0  0  0  0  0  0
  1  2  2  0  0  0  0
  2  3  1  0  0  0  0
  3  4  1  0  0  0  0
  4  5  1  0  0  0  0
  5  6  1  0  0  0  0
  6  7  1  0  0  0  0
  7  8  1  0  0  0  0
  8  9  1  0  0  0  0
  9 10  1  0  0  0  0
  8 10  1  0  0  0  0
 10 11  1  0  0  0  0
  5 11  1  0  0  0  0
  2 12  1  0  0  0  0
 12 13  1  0  0  0  0
 13 14  1  0  0  0  0
 14 15  1  0  0  0  0
 15 16  1  0  0  0  0
 16 17  1  0  0  0  0
 15 17  1  0  0  0  0
 17 18  1  0  0  0  0
 12 18  1  0  0  0  0
M  END
> <activity>
4.024137931

> <InChiKey>
YXALYBMHAYZKAP-UHFFFAOYSA-N

$$$$

  Mrv2220 08292413132D          

 29 33  0  0  0  0            999 V2000
    4.1570    1.1270    0.0000 C   0  0  0  0  0  0  0  0  0  0  0  0
    3.7445    0.4125    0.0000 N   0  0  0  0  0  0  0  0  0  0  0  0
    4.1570   -0.3020    0.0000 C   0  0  0  0  0  0  0  0  0  0  0  0
    3.7445   -1.0164    0.0000 O   0  0  0  0  0  0  0  0  0  0  0  0
    4.9820   -0.3020    0.0000 C   0  0  0  0  0  0  0  0  0  0  0  0
    5.3945    0.4125    0.0000 C   0  0  0  0  0  0  0  0  0  0  0  0
    4.9820    1.1270    0.0000 C   0  0  0  0  0  0  0  0  0  0  0  0
    5.3945    1.8414    0.0000 C   0  0  0  0  0  0  0  0  0  0  0  0
    6.2195    1.8414    0.0000 C   0  0  0  0  0  0  0  0  0  0  0  0
    6.6320    1.1270    0.0000 C   0  0  0  0  0  0  0  0  0  0  0  0
    7.4390    0.9554    0.0000 O   0  0  0  0  0  0  0  0  0  0  0  0
    7.5253    0.1350    0.0000 C   0  0  0  0  0  0  0  0  0  0  0  0
    6.7716   -0.2006    0.0000 C   0  0  0  0  0  0  0  0  0  0  0  0
    6.2195    0.4125    0.0000 C   0  0  0  0  0  0  0  0  0  0  0  0
    2.9195    0.4125    0.0000 C   0  0  0  0  0  0  0  0  0  0  0  0
    2.5070   -0.3020    0.0000 C   0  0  0  0  0  0  0  0  0  0  0  0
    1.6820   -0.3020    0.0000 C   0  0  0  0  0  0  0  0  0  0  0  0
    1.2695    0.4125    0.0000 C   0  0  0  0  0  0  0  0  0  0  0  0
    0.7846   -0.2549    0.0000 C   0  0  0  0  0  0  0  0  0  0  0  0
    0.0000   -0.0000    0.0000 C   0  0  0  0  0  0  0  0  0  0  0  0
   -0.0000    0.8250    0.0000 C   0  0  0  0  0  0  0  0  0  0  0  0
    0.7846    1.0799    0.0000 O   0  0  0  0  0  0  0  0  0  0  0  0
    1.6820    1.1270    0.0000 C   0  0  0  0  0  0  0  0  0  0  0  0
    2.5070    1.1270    0.0000 C   0  0  0  0  0  0  0  0  0  0  0  0
    2.9195    1.8414    0.0000 N   0  0  0  0  0  0  0  0  0  0  0  0
    2.5840    2.5951    0.0000 C   0  0  0  0  0  0  0  0  0  0  0  0
    3.1971    3.1471    0.0000 C   0  0  0  0  0  0  0  0  0  0  0  0
    3.9116    2.7346    0.0000 C   0  0  0  0  0  0  0  0  0  0  0  0
    3.7400    1.9277    0.0000 C   0  0  0  0  0  0  0  0  0  0  0  0
  1  2  1  0  0  0  0
  2  3  1  0  0  0  0
  3  4  2  0  0  0  0
  3  5  1  0  0  0  0
  5  6  1  0  0  0  0
  6  7  4  0  0  0  0
  7  8  4  0  0  0  0
  8  9  4  0  0  0  0
  9 10  4  0  0  0  0
 10 11  4  0  0  0  0
 11 12  4  0  0  0  0
 12 13  4  0  0  0  0
 13 14  4  0  0  0  0
  6 14  4  0  0  0  0
 10 14  4  0  0  0  0
  2 15  1  0  0  0  0
 15 16  1  0  0  0  0
 16 17  1  0  0  0  0
 17 18  1  0  0  0  0
 18 19  1  0  0  0  0
 19 20  1  0  0  0  0
 20 21  1  0  0  0  0
 21 22  1  0  0  0  0
 18 22  1  0  0  0  0
 18 23  1  0  0  0  0
 23 24  1  0  0  0  0
 15 24  1  0  0  0  0
 24 25  1  0  0  0  0
 25 26  1  0  0  0  0
 26 27  1  0  0  0  0
 27 28  1  0  0  0  0
 28 29  1  0  0  0  0
 25 29  1  0  0  0  0
M  END
> <activity>
5.575556759

> <InChiKey>
JMBYBVLCYODBJQ-UHFFFAOYSA-N

$$$$

  Mrv2220 08292413132D          

 12 11  0  0  0  0            999 V2000
    1.2375   -2.1434    0.0000 C   0  0  0  0  0  0  0  0  0  0  0  0
    1.6500   -1.4289    0.0000 C   0  0  0  0  0  0  0  0  0  0  0  0
    2.4750   -1.4289    0.0000 C   0  0  0  0  0  0  0  0  0  0  0  0
    2.8875   -0.7145    0.0000 N   0  0  0  0  0  0  0  0  0  0  0  0
    2.4750    0.0000    0.0000 C   0  0  0  0  0  0  0  0  0  0  0  0
    1.6500   -0.0000    0.0000 C   0  0  0  0  0  0  0  0  0  0  0  0
    1.2375    0.7145    0.0000 C   0  0  0  0  0  0  0  0  0  0  0  0
    3.7125   -0.7145    0.0000 C   0  0  0  0  0  0  0  0  0  0  0  0
    4.1250   -1.4289    0.0000 O   0  0  0  0  0  0  0  0  0  0  0  0
    4.1250    0.0000    0.0000 S   0  0  0  0  0  0  0  0  0  0  0  0
    4.9500    0.0000    0.0000 C   0  0  0  0  0  0  0  0  0  0  0  0
    5.3625    0.7145    0.0000 C   0  0  0  0  0  0  0  0  0  0  0  0
  1  2  1  0  0  0  0
  2  3  1  0  0  0  0
  3  4  1  0  0  0  0
  4  5  1  0  0  0  0
  5  6  1  0  0  0  0
  6  7  1  0  0  0  0
  4  8  1  0  0  0  0
  8  9  2  0  0  0  0
  8 10  1  0  0  0  0
 10 11  1  0  0  0  0
 11 12  1  0  0  0  0
M  END
> <activity>
24.28323896

> <InChiKey>
GUVLYNGULCJVDO-UHFFFAOYSA-N

$$$$

  Mrv2220 08292413132D          

 19 18  0  0  0  0            999 V2000
    5.8263    1.0164    0.0000 C   0  0  0  0  0  0  0  0  0  0  0  0
    5.1118    1.4289    0.0000 C   0  0  0  0  0  0  0  0  0  0  0  0
    4.3974    1.0164    0.0000 O   0  0  0  0  0  0  0  0  0  0  0  0
    3.6829    1.4289    0.0000 P   0  0  0  0  0  0  0  0  0  0  0  0
    4.0954    2.1434    0.0000 S   0  0  0  0  0  0  0  0  0  0  0  0
    3.2704    0.7145    0.0000 O   0  0  0  0  0  0  0  0  0  0  0  0
    2.4454    0.7145    0.0000 C   0  0  0  0  0  0  0  0  0  0  0  0
    2.0329    0.0000    0.0000 C   0  0  0  0  0  0  0  0  0  0  0  0
    2.9684    1.8414    0.0000 S   0  0  0  0  0  0  0  0  0  0  0  0
    2.2539    1.4289    0.0000 C   0  0  0  0  0  0  0  0  0  0  0  0
    1.5395    1.8414    0.0000 S   0  0  0  0  0  0  0  0  0  0  0  0
    0.8250    1.4289    0.0000 P   0  0  0  0  0  0  0  0  0  0  0  0
    0.4125    2.1434    0.0000 S   0  0  0  0  0  0  0  0  0  0  0  0
    0.1105    1.0164    0.0000 O   0  0  0  0  0  0  0  0  0  0  0  0
   -0.6039    1.4289    0.0000 C   0  0  0  0  0  0  0  0  0  0  0  0
   -1.3184    1.0164    0.0000 C   0  0  0  0  0  0  0  0  0  0  0  0
    1.2375    0.7145    0.0000 O   0  0  0  0  0  0  0  0  0  0  0  0
    0.8250    0.0000    0.0000 C   0  0  0  0  0  0  0  0  0  0  0  0
    0.0000    0.0000    0.0000 C   0  0  0  0  0  0  0  0  0  0  0  0
  1  2  1  0  0  0  0
  2  3  1  0  0  0  0
  3  4  1  0  0  0  0
  4  5  2  0  0  0  0
  4  6  1  0  0  0  0
  6  7  1  0  0  0  0
  7  8  1  0  0  0  0
  4  9  1  0  0  0  0
  9 10  1  0  0  0  0
 10 11  1  0  0  0  0
 11 12  1  0  0  0  0
 12 13  2  0  0  0  0
 12 14  1  0  0  0  0
 14 15  1  0  0  0  0
 15 16  1  0  0  0  0
 12 17  1  0  0  0  0
 17 18  1  0  0  0  0
 18 19  1  0  0  0  0
M  END
> <activity>
96.31702473

> <InChiKey>
RIZMRRKBZQXFOY-UHFFFAOYSA-N

$$$$

  Mrv2220 08292413132D          

 13 12  0  0  0  0            999 V2000
    4.9500   -2.8579    0.0000 C   0  0  0  0  0  0  0  0  0  0  0  0
    4.1250   -2.8579    0.0000 C   0  0  0  0  0  0  0  0  0  0  0  0
    3.7125   -2.1434    0.0000 C   0  0  0  0  0  0  0  0  0  0  0  0
    2.8875   -2.1434    0.0000 S   0  0  0  0  0  0  0  0  0  0  0  0
    2.4750   -1.4289    0.0000 P   0  0  0  0  0  0  0  0  0  0  0  0
    3.1895   -1.0164    0.0000 O   0  0  0  0  0  0  0  0  0  0  0  0
    1.7605   -1.8414    0.0000 O   0  0  0  0  0  0  0  0  0  0  0  0
    1.0461   -1.4289    0.0000 C   0  0  0  0  0  0  0  0  0  0  0  0
    0.3316   -1.8414    0.0000 C   0  0  0  0  0  0  0  0  0  0  0  0
    2.0625   -0.7145    0.0000 S   0  0  0  0  0  0  0  0  0  0  0  0
    1.2375   -0.7145    0.0000 C   0  0  0  0  0  0  0  0  0  0  0  0
    0.8250    0.0000    0.0000 C   0  0  0  0  0  0  0  0  0  0  0  0
    0.0000    0.0000    0.0000 C   0  0  0  0  0  0  0  0  0  0  0  0
  1  2  1  0  0  0  0
  2  3  1  0  0  0  0
  3  4  1  0  0  0  0
  4  5  1  0  0  0  0
  5  6  2  0  0  0  0
  5  7  1  0  0  0  0
  7  8  1  0  0  0  0
  8  9  1  0  0  0  0
  5 10  1  0  0  0  0
 10 11  1  0  0  0  0
 11 12  1  0  0  0  0
 12 13  1  0  0  0  0
M  END
> <activity>
24.58492627

> <InChiKey>
VJYFKVYYMZPMAB-UHFFFAOYSA-N

$$$$

  Mrv2220 08292413132D          

 12 12  0  0  0  0            999 V2000
   -0.7145    3.7125    0.0000 C   0  0  0  0  0  0  0  0  0  0  0  0
    0.0000    3.3000    0.0000 C   0  0  0  0  0  0  0  0  0  0  0  0
    0.0000    2.4750    0.0000 O   0  0  0  0  0  0  0  0  0  0  0  0
    0.7145    2.0625    0.0000 C   0  0  0  0  0  0  0  0  0  0  0  0
    1.4289    2.4750    0.0000 O   0  0  0  0  0  0  0  0  0  0  0  0
    0.7145    1.2375    0.0000 C   0  0  0  0  0  0  0  0  0  0  0  0
    1.4289    0.8250    0.0000 C   0  0  0  0  0  0  0  0  0  0  0  0
    1.4289   -0.0000    0.0000 C   0  0  0  0  0  0  0  0  0  0  0  0
    0.7145   -0.4125    0.0000 C   0  0  0  0  0  0  0  0  0  0  0  0
    0.7145   -1.2375    0.0000 C   0  0  0  0  0  0  0  0  0  0  0  0
    0.0000    0.0000    0.0000 C   0  0  0  0  0  0  0  0  0  0  0  0
    0.0000    0.8250    0.0000 C   0  0  0  0  0  0  0  0  0  0  0  0
  1  2  1  0  0  0  0
  2  3  1  0  0  0  0
  3  4  1  0  0  0  0
  4  5  2  0  0  0  0
  4  6  1  0  0  0  0
  6  7  4  0  0  0  0
  7  8  4  0  0  0  0
  8  9  4  0  0  0  0
  9 10  1  0  0  0  0
  9 11  4  0  0  0  0
 11 12  4  0  0  0  0
  6 12  4  0  0  0  0
M  END
> <activity>
6.593028457

> <InChiKey>
NWPWRAWAUYIELB-UHFFFAOYSA-N

$$$$

  Mrv2220 08292413132D          

 22 24  0  0  0  0            999 V2000
    1.8953   -5.1690    0.0000 C   0  0  0  0  0  0  0  0  0  0  0  0
    2.2308   -4.4153    0.0000 C   0  0  0  0  0  0  0  0  0  0  0  0
    1.7459   -3.7479    0.0000 O   0  0  0  0  0  0  0  0  0  0  0  0
    2.0815   -2.9942    0.0000 C   0  0  0  0  0  0  0  0  0  0  0  0
    2.9020   -2.9080    0.0000 O   0  0  0  0  0  0  0  0  0  0  0  0
    1.5966   -2.3268    0.0000 C   0  0  0  0  0  0  0  0  0  0  0  0
    0.7716   -2.3268    0.0000 N   0  0  0  0  0  0  0  0  0  0  0  0
    0.5166   -1.5422    0.0000 O   0  0  0  0  0  0  0  0  0  0  0  0
    1.1841   -1.0572    0.0000 C   0  0  0  0  0  0  0  0  0  0  0  0
    0.6320   -0.4441    0.0000 C   0  0  0  0  0  0  0  0  0  0  0  0
   -0.1749   -0.6157    0.0000 C   0  0  0  0  0  0  0  0  0  0  0  0
   -0.7270   -0.0026    0.0000 C   0  0  0  0  0  0  0  0  0  0  0  0
   -0.4720    0.7820    0.0000 C   0  0  0  0  0  0  0  0  0  0  0  0
    0.3349    0.9536    0.0000 C   0  0  0  0  0  0  0  0  0  0  0  0
    0.8870    0.3405    0.0000 C   0  0  0  0  0  0  0  0  0  0  0  0
    1.7361   -0.4441    0.0000 C   0  0  0  0  0  0  0  0  0  0  0  0
    1.4812    0.3405    0.0000 C   0  0  0  0  0  0  0  0  0  0  0  0
    2.0332    0.9536    0.0000 C   0  0  0  0  0  0  0  0  0  0  0  0
    2.8402    0.7820    0.0000 C   0  0  0  0  0  0  0  0  0  0  0  0
    3.0951   -0.0026    0.0000 C   0  0  0  0  0  0  0  0  0  0  0  0
    2.5431   -0.6157    0.0000 C   0  0  0  0  0  0  0  0  0  0  0  0
    1.8515   -1.5422    0.0000 C   0  0  0  0  0  0  0  0  0  0  0  0
  1  2  1  0  0  0  0
  2  3  1  0  0  0  0
  3  4  1  0  0  0  0
  4  5  2  0  0  0  0
  4  6  1  0  0  0  0
  6  7  2  0  0  0  0
  7  8  1  0  0  0  0
  8  9  1  0  0  0  0
  9 10  1  0  0  0  0
 10 11  4  0  0  0  0
 11 12  4  0  0  0  0
 12 13  4  0  0  0  0
 13 14  4  0  0  0  0
 14 15  4  0  0  0  0
 10 15  4  0  0  0  0
  9 16  1  0  0  0  0
 16 17  4  0  0  0  0
 17 18  4  0  0  0  0
 18 19  4  0  0  0  0
 19 20  4  0  0  0  0
 20 21  4  0  0  0  0
 16 21  4  0  0  0  0
  9 22  1  0  0  0  0
  6 22  1  0  0  0  0
M  END
> <activity>
75.03377386

> <InChiKey>
MWKVXOJATACCCH-UHFFFAOYSA-N

$$$$

  Mrv2220 08292413132D          

  8  7  0  0  0  0            999 V2000
    1.7605    1.8414    0.0000 C   0  0  0  0  0  0  0  0  0  0  0  0
    2.4750    1.4289    0.0000 C   0  0  0  0  0  0  0  0  0  0  0  0
    3.1895    1.8414    0.0000 C   0  0  0  0  0  0  0  0  0  0  0  0
    3.9039    1.4289    0.0000 C   0  0  0  0  0  0  0  0  0  0  0  0
    3.9039    0.6039    0.0000 O   0  0  0  0  0  0  0  0  0  0  0  0
    4.6184    1.8414    0.0000 O   0  0  0  0  0  0  0  0  0  0  0  0
    5.3329    1.4289    0.0000 C   0  0  0  0  0  0  0  0  0  0  0  0
    6.0474    1.8414    0.0000 C   0  0  0  0  0  0  0  0  0  0  0  0
  1  2  1  0  0  0  0
  2  3  1  0  0  0  0
  3  4  1  0  0  0  0
  4  5  2  0  0  0  0
  4  6  1  0  0  0  0
  6  7  1  0  0  0  0
  7  8  1  0  0  0  0
M  END
> <activity>
-0.643918878

> <InChiKey>
OBNCKNCVKJNDBV-UHFFFAOYSA-N

$$$$

  Mrv2220 08292413132D          

 15 16  0  0  0  0            999 V2000
    2.8291   -4.3408    0.0000 C   0  0  0  0  0  0  0  0  0  0  0  0
    2.8291   -3.5158    0.0000 C   0  0  0  0  0  0  0  0  0  0  0  0
    2.1146   -3.1033    0.0000 O   0  0  0  0  0  0  0  0  0  0  0  0
    2.1146   -2.2783    0.0000 C   0  0  0  0  0  0  0  0  0  0  0  0
    2.8291   -1.8658    0.0000 O   0  0  0  0  0  0  0  0  0  0  0  0
    1.4002   -1.8658    0.0000 C   0  0  0  0  0  0  0  0  0  0  0  0
    0.5752   -1.8658    0.0000 O   0  0  0  0  0  0  0  0  0  0  0  0
    0.9877   -1.1514    0.0000 C   0  0  0  0  0  0  0  0  0  0  0  0
    0.5145   -0.4756    0.0000 C   0  0  0  0  0  0  0  0  0  0  0  0
    1.4609   -0.4756    0.0000 C   0  0  0  0  0  0  0  0  0  0  0  0
    1.1122    0.2721    0.0000 C   0  0  0  0  0  0  0  0  0  0  0  0
    1.5854    0.9479    0.0000 C   0  0  0  0  0  0  0  0  0  0  0  0
    2.4073    0.8760    0.0000 C   0  0  0  0  0  0  0  0  0  0  0  0
    2.7559    0.1283    0.0000 C   0  0  0  0  0  0  0  0  0  0  0  0
    2.2827   -0.5475    0.0000 C   0  0  0  0  0  0  0  0  0  0  0  0
  1  2  1  0  0  0  0
  2  3  1  0  0  0  0
  3  4  1  0  0  0  0
  4  5  2  0  0  0  0
  4  6  1  0  0  0  0
  6  7  1  0  0  0  0
  7  8  1  0  0  0  0
  6  8  1  0  0  0  0
  8  9  1  0  0  0  0
  8 10  1  0  0  0  0
 10 11  4  0  0  0  0
 11 12  4  0  0  0  0
 12 13  4  0  0  0  0
 13 14  4  0  0  0  0
 14 15  4  0  0  0  0
 10 15  4  0  0  0  0
M  END
> <activity>
36.90752906

> <InChiKey>
LQKRYVGRPXFFAV-UHFFFAOYSA-N

$$$$

  Mrv2220 08292413132D          

 20 19  0  0  0  0            999 V2000
    5.0627    1.0005    0.0000 O   0  0  0  0  0  0  0  0  0  0  0  0
    5.8729    1.1565    0.0000 C   0  0  0  0  0  0  0  0  0  0  0  0
    6.1429    1.9360    0.0000 O   0  0  0  0  0  0  0  0  0  0  0  0
    6.4129    0.5328    0.0000 C   0  0  0  0  0  0  0  0  0  0  0  0
    6.1429   -0.2467    0.0000 N   0  0  0  0  0  0  0  0  0  0  0  0
    5.3328   -0.4027    0.0000 C   0  0  0  0  0  0  0  0  0  0  0  0
    5.0627   -1.1822    0.0000 C   0  0  0  0  0  0  0  0  0  0  0  0
    4.2526   -1.3381    0.0000 N   0  0  0  0  0  0  0  0  0  0  0  0
    3.9825   -2.1177    0.0000 C   0  0  0  0  0  0  0  0  0  0  0  0
    4.5226   -2.7413    0.0000 C   0  0  0  0  0  0  0  0  0  0  0  0
    5.3328   -2.5854    0.0000 O   0  0  0  0  0  0  0  0  0  0  0  0
    4.2526   -3.5209    0.0000 O   0  0  0  0  0  0  0  0  0  0  0  0
    3.7125   -0.7145    0.0000 C   0  0  0  0  0  0  0  0  0  0  0  0
    2.9024   -0.8704    0.0000 C   0  0  0  0  0  0  0  0  0  0  0  0
    2.3623   -0.2467    0.0000 O   0  0  0  0  0  0  0  0  0  0  0  0
    2.6323   -1.6499    0.0000 O   0  0  0  0  0  0  0  0  0  0  0  0
    6.6830   -0.8704    0.0000 C   0  0  0  0  0  0  0  0  0  0  0  0
    7.4931   -0.7145    0.0000 C   0  0  0  0  0  0  0  0  0  0  0  0
    7.7632    0.0651    0.0000 O   0  0  0  0  0  0  0  0  0  0  0  0
    8.0332   -1.3381    0.0000 O   0  0  0  0  0  0  0  0  0  0  0  0
  1  2  2  0  0  0  0
  2  3  1  0  0  0  0
  2  4  1  0  0  0  0
  4  5  1  0  0  0  0
  5  6  1  0  0  0  0
  6  7  1  0  0  0  0
  7  8  1  0  0  0  0
  8  9  1  0  0  0  0
  9 10  1  0  0  0  0
 10 11  2  0  0  0  0
 10 12  1  0  0  0  0
  8 13  1  0  0  0  0
 13 14  1  0  0  0  0
 14 15  2  0  0  0  0
 14 16  1  0  0  0  0
  5 17  1  0  0  0  0
 17 18  1  0  0  0  0
 18 19  2  0  0  0  0
 18 20  1  0  0  0  0
M  END
> <activity>
9.537897999

> <InChiKey>
KCXVZYZYPLLWCC-UHFFFAOYSA-N

$$$$

  Mrv2220 08292413132D          

 28 31  0  0  0  0            999 V2000
    2.5887   -0.6860    0.0000 C   0  0  0  0  0  0  0  0  0  0  0  0
    2.0367   -1.2991    0.0000 C   0  0  0  0  0  0  0  0  0  0  0  0
    1.4847   -0.6860    0.0000 C   0  0  0  0  0  0  0  0  0  0  0  0
    0.6777   -0.8575    0.0000 C   0  0  0  0  0  0  0  0  0  0  0  0
    0.1257   -0.2444    0.0000 C   0  0  0  0  0  0  0  0  0  0  0  0
    0.3806    0.5402    0.0000 C   0  0  0  0  0  0  0  0  0  0  0  0
   -0.1714    1.1533    0.0000 O   0  0  0  0  0  0  0  0  0  0  0  0
    0.0835    1.9379    0.0000 C   0  0  0  0  0  0  0  0  0  0  0  0
   -0.4685    2.5510    0.0000 C   0  0  0  0  0  0  0  0  0  0  0  0
   -0.2136    3.3356    0.0000 C   0  0  0  0  0  0  0  0  0  0  0  0
    0.5934    3.5071    0.0000 C   0  0  0  0  0  0  0  0  0  0  0  0
    1.1454    2.8940    0.0000 C   0  0  0  0  0  0  0  0  0  0  0  0
    0.8905    2.1094    0.0000 C   0  0  0  0  0  0  0  0  0  0  0  0
    1.1876    0.7117    0.0000 C   0  0  0  0  0  0  0  0  0  0  0  0
    1.7396    0.0986    0.0000 C   0  0  0  0  0  0  0  0  0  0  0  0
    2.7041   -1.7840    0.0000 O   0  0  0  0  0  0  0  0  0  0  0  0
    2.4492   -2.5687    0.0000 C   0  0  0  0  0  0  0  0  0  0  0  0
    2.9341   -3.2361    0.0000 O   0  0  0  0  0  0  0  0  0  0  0  0
    1.6242   -2.5687    0.0000 N   0  0  0  0  0  0  0  0  0  0  0  0
    1.1393   -3.2361    0.0000 N   0  0  0  0  0  0  0  0  0  0  0  0
    0.3188   -3.1499    0.0000 C   0  0  0  0  0  0  0  0  0  0  0  0
   -0.1661   -3.8173    0.0000 C   0  0  0  0  0  0  0  0  0  0  0  0
   -0.9866   -3.7311    0.0000 C   0  0  0  0  0  0  0  0  0  0  0  0
   -1.3222   -2.9774    0.0000 C   0  0  0  0  0  0  0  0  0  0  0  0
   -0.8372   -2.3099    0.0000 C   0  0  0  0  0  0  0  0  0  0  0  0
   -0.0168   -2.3962    0.0000 C   0  0  0  0  0  0  0  0  0  0  0  0
    1.3693   -1.7840    0.0000 C   0  0  0  0  0  0  0  0  0  0  0  0
    0.5846   -1.5291    0.0000 O   0  0  0  0  0  0  0  0  0  0  0  0
  1  2  1  0  0  0  0
  2  3  1  0  0  0  0
  3  4  4  0  0  0  0
  4  5  4  0  0  0  0
  5  6  4  0  0  0  0
  6  7  1  0  0  0  0
  7  8  1  0  0  0  0
  8  9  4  0  0  0  0
  9 10  4  0  0  0  0
 10 11  4  0  0  0  0
 11 12  4  0  0  0  0
 12 13  4  0  0  0  0
  8 13  4  0  0  0  0
  6 14  4  0  0  0  0
 14 15  4  0  0  0  0
  3 15  4  0  0  0  0
  2 16  1  0  0  0  0
 16 17  1  0  0  0  0
 17 18  2  0  0  0  0
 17 19  1  0  0  0  0
 19 20  1  0  0  0  0
 20 21  1  0  0  0  0
 21 22  4  0  0  0  0
 22 23  4  0  0  0  0
 23 24  4  0  0  0  0
 24 25  4  0  0  0  0
 25 26  4  0  0  0  0
 21 26  4  0  0  0  0
 19 27  1  0  0  0  0
  2 27  1  0  0  0  0
 27 28  2  0  0  0  0
M  END
> <activity>
66.56265898

> <InChiKey>
PCCSBWNGDMYFCW-UHFFFAOYSA-N

$$$$

  Mrv2220 08292413132D          

 26 28  0  0  0  0            999 V2000
    2.6041   -2.0750    0.0000 C   0  0  0  0  0  0  0  0  0  0  0  0
    2.7474   -2.8875    0.0000 C   0  0  0  0  0  0  0  0  0  0  0  0
    1.9721   -3.1697    0.0000 C   0  0  0  0  0  0  0  0  0  0  0  0
    3.5724   -2.8875    0.0000 C   0  0  0  0  0  0  0  0  0  0  0  0
    4.2868   -2.4750    0.0000 C   0  0  0  0  0  0  0  0  0  0  0  0
    5.0013   -2.8875    0.0000 O   0  0  0  0  0  0  0  0  0  0  0  0
    4.2868   -1.6500    0.0000 O   0  0  0  0  0  0  0  0  0  0  0  0
    5.0013   -1.2375    0.0000 C   0  0  0  0  0  0  0  0  0  0  0  0
    5.7158   -1.6500    0.0000 C   0  0  0  0  0  0  0  0  0  0  0  0
    6.4302   -2.0625    0.0000 N   0  0  0  0  0  0  0  0  0  0  0  0
    5.0013   -0.4125    0.0000 C   0  0  0  0  0  0  0  0  0  0  0  0
    4.2868    0.0000    0.0000 C   0  0  0  0  0  0  0  0  0  0  0  0
    4.2868    0.8250    0.0000 C   0  0  0  0  0  0  0  0  0  0  0  0
    5.0013    1.2375    0.0000 C   0  0  0  0  0  0  0  0  0  0  0  0
    5.7158    0.8250    0.0000 C   0  0  0  0  0  0  0  0  0  0  0  0
    6.4302    1.2375    0.0000 O   0  0  0  0  0  0  0  0  0  0  0  0
    7.1447    0.8250    0.0000 C   0  0  0  0  0  0  0  0  0  0  0  0
    7.8592    1.2375    0.0000 C   0  0  0  0  0  0  0  0  0  0  0  0
    8.5737    0.8250    0.0000 C   0  0  0  0  0  0  0  0  0  0  0  0
    8.5737    0.0000    0.0000 C   0  0  0  0  0  0  0  0  0  0  0  0
    7.8592   -0.4125    0.0000 C   0  0  0  0  0  0  0  0  0  0  0  0
    7.1447    0.0000    0.0000 C   0  0  0  0  0  0  0  0  0  0  0  0
    5.7158    0.0000    0.0000 C   0  0  0  0  0  0  0  0  0  0  0  0
    3.1599   -3.6020    0.0000 C   0  0  0  0  0  0  0  0  0  0  0  0
    3.6331   -4.2778    0.0000 C   0  0  0  0  0  0  0  0  0  0  0  0
    2.6867   -4.2778    0.0000 C   0  0  0  0  0  0  0  0  0  0  0  0
  1  2  1  0  0  0  0
  2  3  1  0  0  0  0
  2  4  1  0  0  0  0
  4  5  1  0  0  0  0
  5  6  2  0  0  0  0
  5  7  1  0  0  0  0
  7  8  1  0  0  0  0
  8  9  1  0  0  0  0
  9 10  3  0  0  0  0
  8 11  1  0  0  0  0
 11 12  4  0  0  0  0
 12 13  4  0  0  0  0
 13 14  4  0  0  0  0
 14 15  4  0  0  0  0
 15 16  1  0  0  0  0
 16 17  1  0  0  0  0
 17 18  4  0  0  0  0
 18 19  4  0  0  0  0
 19 20  4  0  0  0  0
 20 21  4  0  0  0  0
 21 22  4  0  0  0  0
 17 22  4  0  0  0  0
 15 23  4  0  0  0  0
 11 23  4  0  0  0  0
  4 24  1  0  0  0  0
  2 24  1  0  0  0  0
 24 25  1  0  0  0  0
 24 26  1  0  0  0  0
M  END
> <activity>
61.22151526

> <InChiKey>
XQUXKZZNEFRCAW-UHFFFAOYSA-N

$$$$

  Mrv2220 08292413132D          

 31 33  0  0  0  0            999 V2000
    0.7145   -2.8875    0.0000 C   0  0  0  0  0  0  0  0  0  0  0  0
    0.7145   -3.7125    0.0000 C   0  0  0  0  0  0  0  0  0  0  0  0
    1.3819   -4.1974    0.0000 N   0  0  0  0  0  0  0  0  0  0  0  0
    1.1270   -4.9820    0.0000 N   0  0  0  0  0  0  0  0  0  0  0  0
    1.6119   -5.6495    0.0000 C   0  0  0  0  0  0  0  0  0  0  0  0
    0.3020   -4.9820    0.0000 C   0  0  0  0  0  0  0  0  0  0  0  0
   -0.1830   -5.6495    0.0000 O   0  0  0  0  0  0  0  0  0  0  0  0
    0.1526   -6.4032    0.0000 C   0  0  0  0  0  0  0  0  0  0  0  0
    0.9731   -6.4894    0.0000 C   0  0  0  0  0  0  0  0  0  0  0  0
    1.3086   -7.2431    0.0000 C   0  0  0  0  0  0  0  0  0  0  0  0
    0.8237   -7.9105    0.0000 C   0  0  0  0  0  0  0  0  0  0  0  0
    0.0032   -7.8243    0.0000 C   0  0  0  0  0  0  0  0  0  0  0  0
   -0.3323   -7.0706    0.0000 C   0  0  0  0  0  0  0  0  0  0  0  0
    0.0470   -4.1974    0.0000 C   0  0  0  0  0  0  0  0  0  0  0  0
   -0.7376   -3.9425    0.0000 C   0  0  0  0  0  0  0  0  0  0  0  0
   -0.9091   -3.1355    0.0000 N   0  0  0  0  0  0  0  0  0  0  0  0
   -1.6937   -2.8806    0.0000 O   0  0  0  0  0  0  0  0  0  0  0  0
   -2.3068   -3.4326    0.0000 C   0  0  0  0  0  0  0  0  0  0  0  0
   -3.0915   -3.1777    0.0000 C   0  0  0  0  0  0  0  0  0  0  0  0
   -3.7045   -3.7297    0.0000 C   0  0  0  0  0  0  0  0  0  0  0  0
   -4.4892   -3.4748    0.0000 C   0  0  0  0  0  0  0  0  0  0  0  0
   -4.6607   -2.6678    0.0000 C   0  0  0  0  0  0  0  0  0  0  0  0
   -5.4453   -2.4128    0.0000 C   0  0  0  0  0  0  0  0  0  0  0  0
   -6.0584   -2.9649    0.0000 O   0  0  0  0  0  0  0  0  0  0  0  0
   -5.6168   -1.6059    0.0000 O   0  0  0  0  0  0  0  0  0  0  0  0
   -6.4015   -1.3509    0.0000 C   0  0  0  0  0  0  0  0  0  0  0  0
   -7.1861   -1.0960    0.0000 C   0  0  0  0  0  0  0  0  0  0  0  0
   -6.1465   -0.5663    0.0000 C   0  0  0  0  0  0  0  0  0  0  0  0
   -6.6564   -2.1356    0.0000 C   0  0  0  0  0  0  0  0  0  0  0  0
   -4.0476   -2.1158    0.0000 C   0  0  0  0  0  0  0  0  0  0  0  0
   -3.2630   -2.3707    0.0000 C   0  0  0  0  0  0  0  0  0  0  0  0
  1  2  1  0  0  0  0
  2  3  4  0  0  0  0
  3  4  4  0  0  0  0
  4  5  1  0  0  0  0
  4  6  4  0  0  0  0
  6  7  1  0  0  0  0
  7  8  1  0  0  0  0
  8  9  4  0  0  0  0
  9 10  4  0  0  0  0
 10 11  4  0  0  0  0
 11 12  4  0  0  0  0
 12 13  4  0  0  0  0
  8 13  4  0  0  0  0
  6 14  4  0  0  0  0
  2 14  4  0  0  0  0
 15 14  1  4  0  0  0
 15 16  2  0  0  0  0
 16 17  1  0  0  0  0
 17 18  1  0  0  0  0
 18 19  1  0  0  0  0
 19 20  4  0  0  0  0
 20 21  4  0  0  0  0
 21 22  4  0  0  0  0
 22 23  1  0  0  0  0
 23 24  2  0  0  0  0
 23 25  1  0  0  0  0
 25 26  1  0  0  0  0
 26 27  1  0  0  0  0
 26 28  1  0  0  0  0
 26 29  1  0  0  0  0
 22 30  4  0  0  0  0
 30 31  4  0  0  0  0
 19 31  4  0  0  0  0
M  END
> <activity>
26.57892215

> <InChiKey>
YYJNOYZRYGDPNH-UHFFFAOYSA-N

$$$$

  Mrv2220 08292413132D          

 26 27  0  0  0  0            999 V2000
   -0.7145   -2.0625    0.0000 C   0  0  0  0  0  0  0  0  0  0  0  0
    0.0000   -2.4750    0.0000 O   0  0  0  0  0  0  0  0  0  0  0  0
    0.0000   -3.3000    0.0000 C   0  0  0  0  0  0  0  0  0  0  0  0
    0.6674   -3.7849    0.0000 N   0  0  0  0  0  0  0  0  0  0  0  0
    0.4125   -4.5695    0.0000 N   0  0  0  0  0  0  0  0  0  0  0  0
    0.8974   -5.2370    0.0000 C   0  0  0  0  0  0  0  0  0  0  0  0
    1.7179   -5.1507    0.0000 O   0  0  0  0  0  0  0  0  0  0  0  0
    0.5619   -5.9907    0.0000 N   0  0  0  0  0  0  0  0  0  0  0  0
    1.0468   -6.6581    0.0000 S   0  0  0  0  0  0  0  0  0  0  0  0
    0.3793   -7.1430    0.0000 O   0  0  0  0  0  0  0  0  0  0  0  0
    1.7142   -6.1732    0.0000 O   0  0  0  0  0  0  0  0  0  0  0  0
    1.5317   -7.3255    0.0000 C   0  0  0  0  0  0  0  0  0  0  0  0
    2.3522   -7.2393    0.0000 C   0  0  0  0  0  0  0  0  0  0  0  0
    2.8371   -7.9067    0.0000 C   0  0  0  0  0  0  0  0  0  0  0  0
    2.5016   -8.6604    0.0000 C   0  0  0  0  0  0  0  0  0  0  0  0
    1.6811   -8.7467    0.0000 C   0  0  0  0  0  0  0  0  0  0  0  0
    1.1962   -8.0792    0.0000 C   0  0  0  0  0  0  0  0  0  0  0  0
    0.3757   -8.1654    0.0000 O   0  0  0  0  0  0  0  0  0  0  0  0
    0.0401   -8.9191    0.0000 C   0  0  0  0  0  0  0  0  0  0  0  0
   -0.2954   -9.6728    0.0000 F   0  0  0  0  0  0  0  0  0  0  0  0
   -0.7136   -8.5836    0.0000 F   0  0  0  0  0  0  0  0  0  0  0  0
    0.7938   -9.2547    0.0000 F   0  0  0  0  0  0  0  0  0  0  0  0
   -0.4125   -4.5695    0.0000 C   0  0  0  0  0  0  0  0  0  0  0  0
   -0.8974   -5.2370    0.0000 O   0  0  0  0  0  0  0  0  0  0  0  0
   -0.6674   -3.7849    0.0000 N   0  0  0  0  0  0  0  0  0  0  0  0
   -1.4521   -3.5300    0.0000 C   0  0  0  0  0  0  0  0  0  0  0  0
  1  2  1  0  0  0  0
  2  3  1  0  0  0  0
  3  4  4  0  0  0  0
  4  5  4  0  0  0  0
  5  6  1  0  0  0  0
  6  7  2  0  0  0  0
  6  8  1  0  0  0  0
  8  9  1  0  0  0  0
  9 10  2  0  0  0  0
  9 11  2  0  0  0  0
  9 12  1  0  0  0  0
 12 13  4  0  0  0  0
 13 14  4  0  0  0  0
 14 15  4  0  0  0  0
 15 16  4  0  0  0  0
 16 17  4  0  0  0  0
 12 17  4  0  0  0  0
 17 18  1  0  0  0  0
 18 19  1  0  0  0  0
 19 20  1  0  0  0  0
 19 21  1  0  0  0  0
 19 22  1  0  0  0  0
  5 23  4  0  0  0  0
 23 24  2  0  0  0  0
 23 25  4  0  0  0  0
  3 25  4  0  0  0  0
 25 26  1  0  0  0  0
M  END
> <activity>
90.00580897

> <InChiKey>
GINFBXXYGUODAT-UHFFFAOYSA-N

$$$$

  Mrv2220 08292413132D          

 16 16  0  0  0  0            999 V2000
    2.1434    3.7125    0.0000 C   0  0  0  0  0  0  0  0  0  0  0  0
    1.4289    3.3000    0.0000 N   0  0  0  0  0  0  0  0  0  0  0  0
    1.4289    2.4750    0.0000 C   0  0  0  0  0  0  0  0  0  0  0  0
    2.1434    2.0625    0.0000 O   0  0  0  0  0  0  0  0  0  0  0  0
    0.7145    2.0625    0.0000 O   0  0  0  0  0  0  0  0  0  0  0  0
    0.7145    1.2375    0.0000 C   0  0  0  0  0  0  0  0  0  0  0  0
    1.4289    0.8250    0.0000 C   0  0  0  0  0  0  0  0  0  0  0  0
    1.4289   -0.0000    0.0000 C   0  0  0  0  0  0  0  0  0  0  0  0
    0.7145   -0.4125    0.0000 C   0  0  0  0  0  0  0  0  0  0  0  0
    0.0000    0.0000    0.0000 C   0  0  0  0  0  0  0  0  0  0  0  0
   -0.7145   -0.4125    0.0000 N   0  0  0  0  0  0  0  0  0  0  0  0
   -1.4289    0.0000    0.0000 C   0  0  0  0  0  0  0  0  0  0  0  0
   -2.1434   -0.4125    0.0000 N   0  0  0  0  0  0  0  0  0  0  0  0
   -2.1434   -1.2375    0.0000 C   0  0  0  0  0  0  0  0  0  0  0  0
   -2.8579    0.0000    0.0000 C   0  0  0  0  0  0  0  0  0  0  0  0
    0.0000    0.8250    0.0000 C   0  0  0  0  0  0  0  0  0  0  0  0
  1  2  1  0  0  0  0
  2  3  1  0  0  0  0
  3  4  2  0  0  0  0
  3  5  1  0  0  0  0
  5  6  1  0  0  0  0
  6  7  4  0  0  0  0
  7  8  4  0  0  0  0
  8  9  4  0  0  0  0
  9 10  4  0  0  0  0
 11 10  1  4  0  0  0
 11 12  2  0  0  0  0
 12 13  1  0  0  0  0
 13 14  1  0  0  0  0
 13 15  1  0  0  0  0
 10 16  4  0  0  0  0
  6 16  4  0  0  0  0
M  END
> <activity>
13.87244071

> <InChiKey>
RMFNNCGOSPBBAD-UHFFFAOYSA-N

$$$$

  Mrv2220 08292413132D          

  7  6  0  0  0  0            999 V2000
    1.7605    1.8414    0.0000 O   0  0  0  0  0  0  0  0  0  0  0  0
    2.4750    1.4289    0.0000 C   0  0  0  0  0  0  0  0  0  0  0  0
    3.1895    1.8414    0.0000 C   0  0  0  0  0  0  0  0  0  0  0  0
    3.9039    1.4289    0.0000 C   0  0  0  0  0  0  0  0  0  0  0  0
    4.6184    1.8414    0.0000 C   0  0  0  0  0  0  0  0  0  0  0  0
    5.3329    1.4289    0.0000 C   0  0  0  0  0  0  0  0  0  0  0  0
    6.0474    1.8414    0.0000 O   0  0  0  0  0  0  0  0  0  0  0  0
  1  2  2  0  0  0  0
  2  3  1  0  0  0  0
  3  4  1  0  0  0  0
  4  5  1  0  0  0  0
  5  6  1  0  0  0  0
  6  7  2  0  0  0  0
M  END
> <activity>
0.307490223

> <InChiKey>
SXRSQZLOMIGNAQ-UHFFFAOYSA-N

$$$$

  Mrv2220 08292413132D          

  9  8  0  0  0  0            999 V2000
   -0.6039   -1.6500    0.0000 C   0  0  0  0  0  0  0  0  0  0  0  0
    0.1105   -1.2375    0.0000 Si  0  0  0  0  0  0  0  0  0  0  0  0
    0.5230   -1.9520    0.0000 C   0  0  0  0  0  0  0  0  0  0  0  0
   -0.3020   -0.5230    0.0000 C   0  0  0  0  0  0  0  0  0  0  0  0
    0.8250   -0.8250    0.0000 N   0  0  0  0  0  0  0  0  0  0  0  0
    0.8250    0.0000    0.0000 Si  0  0  0  0  0  0  0  0  0  0  0  0
    0.8250    0.8250    0.0000 C   0  0  0  0  0  0  0  0  0  0  0  0
    1.6500   -0.0000    0.0000 C   0  0  0  0  0  0  0  0  0  0  0  0
    0.0000    0.0000    0.0000 C   0  0  0  0  0  0  0  0  0  0  0  0
  1  2  1  0  0  0  0
  2  3  1  0  0  0  0
  2  4  1  0  0  0  0
  2  5  1  0  0  0  0
  5  6  1  0  0  0  0
  6  7  1  0  0  0  0
  6  8  1  0  0  0  0
  6  9  1  0  0  0  0
M  END
> <activity>
5.376452754

> <InChiKey>
FFUAGWLWBBFQJT-UHFFFAOYSA-N

$$$$

  Mrv2220 08292413132D          

 19 20  0  0  0  0            999 V2000
    1.7309   -2.1730    0.0000 C   0  0  0  0  0  0  0  0  0  0  0  0
    2.1434   -2.8875    0.0000 C   0  0  0  0  0  0  0  0  0  0  0  0
    2.9684   -2.8875    0.0000 C   0  0  0  0  0  0  0  0  0  0  0  0
    3.3809   -3.6020    0.0000 O   0  0  0  0  0  0  0  0  0  0  0  0
    4.2059   -3.6020    0.0000 C   0  0  0  0  0  0  0  0  0  0  0  0
    4.6184   -2.8875    0.0000 C   0  0  0  0  0  0  0  0  0  0  0  0
    5.4434   -2.8875    0.0000 N   0  0  0  0  0  0  0  0  0  0  0  0
    5.9283   -2.2201    0.0000 C   0  0  0  0  0  0  0  0  0  0  0  0
    6.7130   -2.4750    0.0000 C   0  0  0  0  0  0  0  0  0  0  0  0
    6.7130   -3.3000    0.0000 N   0  0  0  0  0  0  0  0  0  0  0  0
    5.9283   -3.5549    0.0000 C   0  0  0  0  0  0  0  0  0  0  0  0
    4.6184   -4.3164    0.0000 C   0  0  0  0  0  0  0  0  0  0  0  0
    5.4434   -4.3164    0.0000 C   0  0  0  0  0  0  0  0  0  0  0  0
    5.8559   -5.0309    0.0000 C   0  0  0  0  0  0  0  0  0  0  0  0
    5.4434   -5.7454    0.0000 C   0  0  0  0  0  0  0  0  0  0  0  0
    5.8559   -6.4599    0.0000 Cl  0  0  0  0  0  0  0  0  0  0  0  0
    4.6184   -5.7454    0.0000 C   0  0  0  0  0  0  0  0  0  0  0  0
    4.2059   -5.0309    0.0000 C   0  0  0  0  0  0  0  0  0  0  0  0
    3.3809   -5.0309    0.0000 Cl  0  0  0  0  0  0  0  0  0  0  0  0
  1  2  2  0  0  0  0
  2  3  1  0  0  0  0
  3  4  1  0  0  0  0
  4  5  1  0  0  0  0
  5  6  1  0  0  0  0
  6  7  1  0  0  0  0
  7  8  4  0  0  0  0
  8  9  4  0  0  0  0
  9 10  4  0  0  0  0
 10 11  4  0  0  0  0
  7 11  4  0  0  0  0
  5 12  1  0  0  0  0
 12 13  4  0  0  0  0
 13 14  4  0  0  0  0
 14 15  4  0  0  0  0
 15 16  1  0  0  0  0
 15 17  4  0  0  0  0
 17 18  4  0  0  0  0
 12 18  4  0  0  0  0
 18 19  1  0  0  0  0
M  END
> <activity>
40.52732361

> <InChiKey>
PZBPKYOVPCNPJY-UHFFFAOYSA-N

$$$$

  Mrv2220 08292413132D          

 22 23  0  0  0  0            999 V2000
   -1.7871   -1.8943    0.0000 C   0  0  0  0  0  0  0  0  0  0  0  0
   -1.3022   -1.2269    0.0000 O   0  0  0  0  0  0  0  0  0  0  0  0
   -1.6377   -0.4732    0.0000 C   0  0  0  0  0  0  0  0  0  0  0  0
   -1.1528    0.1942    0.0000 C   0  0  0  0  0  0  0  0  0  0  0  0
   -1.4884    0.9479    0.0000 C   0  0  0  0  0  0  0  0  0  0  0  0
   -1.0034    1.6153    0.0000 N   0  0  0  0  0  0  0  0  0  0  0  0
   -0.1830    1.5291    0.0000 C   0  0  0  0  0  0  0  0  0  0  0  0
    0.3020    2.1965    0.0000 C   0  0  0  0  0  0  0  0  0  0  0  0
    0.0470    2.9812    0.0000 N   0  0  0  0  0  0  0  0  0  0  0  0
    0.7145    3.4661    0.0000 C   0  0  0  0  0  0  0  0  0  0  0  0
    0.1624    4.0792    0.0000 C   0  0  0  0  0  0  0  0  0  0  0  0
    1.2665    4.0792    0.0000 C   0  0  0  0  0  0  0  0  0  0  0  0
    1.0116    4.8638    0.0000 C   0  0  0  0  0  0  0  0  0  0  0  0
    2.0735    3.9076    0.0000 C   0  0  0  0  0  0  0  0  0  0  0  0
    1.3819    2.9812    0.0000 C   0  0  0  0  0  0  0  0  0  0  0  0
    2.1665    3.2361    0.0000 O   0  0  0  0  0  0  0  0  0  0  0  0
    1.1270    2.1965    0.0000 N   0  0  0  0  0  0  0  0  0  0  0  0
    0.1526    0.7754    0.0000 C   0  0  0  0  0  0  0  0  0  0  0  0
    0.9731    0.6892    0.0000 C   0  0  0  0  0  0  0  0  0  0  0  0
    1.3086   -0.0645    0.0000 O   0  0  0  0  0  0  0  0  0  0  0  0
    1.4580    1.3566    0.0000 O   0  0  0  0  0  0  0  0  0  0  0  0
   -0.3323    0.1080    0.0000 C   0  0  0  0  0  0  0  0  0  0  0  0
  1  2  1  0  0  0  0
  2  3  1  0  0  0  0
  3  4  1  0  0  0  0
  4  5  4  0  0  0  0
  5  6  4  0  0  0  0
  6  7  4  0  0  0  0
  7  8  1  0  0  0  0
  8  9  2  0  0  0  0
  9 10  1  0  0  0  0
 10 11  1  0  0  0  0
 10 12  1  0  0  0  0
 12 13  1  0  0  0  0
 12 14  1  0  0  0  0
 10 15  1  0  0  0  0
 15 16  2  0  0  0  0
 15 17  1  0  0  0  0
  8 17  1  0  0  0  0
  7 18  4  0  0  0  0
 18 19  1  0  0  0  0
 19 20  2  0  0  0  0
 19 21  1  0  0  0  0
 18 22  4  0  0  0  0
  4 22  4  0  0  0  0
M  END
> <activity>
4.781540142

> <InChiKey>
NUPJIGQFXCQJBK-UHFFFAOYSA-N

$$$$

  Mrv2220 08292413132D          

 23 25  0  0  0  0            999 V2000
    1.0158   -0.7221    0.0000 C   0  0  0  0  0  0  0  0  0  0  0  0
    0.8443   -1.5291    0.0000 C   0  0  0  0  0  0  0  0  0  0  0  0
    1.4574   -2.0811    0.0000 C   0  0  0  0  0  0  0  0  0  0  0  0
    0.0597   -1.7840    0.0000 C   0  0  0  0  0  0  0  0  0  0  0  0
   -0.1953   -2.5687    0.0000 C   0  0  0  0  0  0  0  0  0  0  0  0
   -1.0203   -2.5687    0.0000 C   0  0  0  0  0  0  0  0  0  0  0  0
   -1.2752   -1.7840    0.0000 C   0  0  0  0  0  0  0  0  0  0  0  0
   -2.0598   -1.5291    0.0000 C   0  0  0  0  0  0  0  0  0  0  0  0
   -2.6729   -2.0811    0.0000 C   0  0  0  0  0  0  0  0  0  0  0  0
   -2.5014   -2.8881    0.0000 C   0  0  0  0  0  0  0  0  0  0  0  0
   -3.1145   -3.4401    0.0000 C   0  0  0  0  0  0  0  0  0  0  0  0
   -3.8991   -3.1852    0.0000 C   0  0  0  0  0  0  0  0  0  0  0  0
   -4.5122   -3.7372    0.0000 Cl  0  0  0  0  0  0  0  0  0  0  0  0
   -4.0706   -2.3782    0.0000 C   0  0  0  0  0  0  0  0  0  0  0  0
   -3.4575   -1.8262    0.0000 C   0  0  0  0  0  0  0  0  0  0  0  0
   -0.6078   -1.2991    0.0000 C   0  0  0  0  0  0  0  0  0  0  0  0
   -1.0128   -0.5804    0.0000 O   0  0  0  0  0  0  0  0  0  0  0  0
   -0.2028   -0.5804    0.0000 C   0  0  0  0  0  0  0  0  0  0  0  0
   -0.6227    0.1298    0.0000 N   0  0  0  0  0  0  0  0  0  0  0  0
   -0.2951    0.8869    0.0000 C   0  0  0  0  0  0  0  0  0  0  0  0
   -0.9139    1.4325    0.0000 N   0  0  0  0  0  0  0  0  0  0  0  0
   -1.6240    1.0125    0.0000 C   0  0  0  0  0  0  0  0  0  0  0  0
   -1.4441    0.2074    0.0000 N   0  0  0  0  0  0  0  0  0  0  0  0
  1  2  1  0  0  0  0
  2  3  1  0  0  0  0
  2  4  1  0  0  0  0
  4  5  1  0  0  0  0
  5  6  1  0  0  0  0
  6  7  1  0  0  0  0
  7  8  1  0  0  0  0
  8  9  1  0  0  0  0
  9 10  4  0  0  0  0
 10 11  4  0  0  0  0
 11 12  4  0  0  0  0
 12 13  1  0  0  0  0
 12 14  4  0  0  0  0
 14 15  4  0  0  0  0
  9 15  4  0  0  0  0
  7 16  1  0  0  0  0
  4 16  1  0  0  0  0
 16 17  1  0  0  0  0
 16 18  1  0  0  0  0
 18 19  1  0  0  0  0
 19 20  4  0  0  0  0
 20 21  4  0  0  0  0
 21 22  4  0  0  0  0
 22 23  4  0  0  0  0
 19 23  4  0  0  0  0
M  END
> <activity>
-20.94502348

> <InChiKey>
QTYCMDBMOLSEAM-UHFFFAOYSA-N

$$$$

  Mrv2220 08292413132D          

 21 22  0  0  0  0            999 V2000
    2.1434    1.2375    0.0000 C   0  0  0  0  0  0  0  0  0  0  0  0
    1.4289    0.8250    0.0000 C   0  0  0  0  0  0  0  0  0  0  0  0
    0.7145    1.2375    0.0000 C   0  0  0  0  0  0  0  0  0  0  0  0
    1.4289   -0.0000    0.0000 N   0  0  0  0  0  0  0  0  0  0  0  0
    0.7145   -0.4125    0.0000 C   0  0  0  0  0  0  0  0  0  0  0  0
    0.0000    0.0000    0.0000 O   0  0  0  0  0  0  0  0  0  0  0  0
    0.7145   -1.2375    0.0000 N   0  0  0  0  0  0  0  0  0  0  0  0
    1.3819   -1.7224    0.0000 C   0  0  0  0  0  0  0  0  0  0  0  0
    1.1270   -2.5070    0.0000 C   0  0  0  0  0  0  0  0  0  0  0  0
    1.6119   -3.1745    0.0000 O   0  0  0  0  0  0  0  0  0  0  0  0
    0.3020   -2.5070    0.0000 N   0  0  0  0  0  0  0  0  0  0  0  0
   -0.1830   -3.1745    0.0000 C   0  0  0  0  0  0  0  0  0  0  0  0
    0.1526   -3.9282    0.0000 C   0  0  0  0  0  0  0  0  0  0  0  0
   -0.3323   -4.5956    0.0000 C   0  0  0  0  0  0  0  0  0  0  0  0
    0.0032   -5.3493    0.0000 Cl  0  0  0  0  0  0  0  0  0  0  0  0
   -1.1528   -4.5094    0.0000 C   0  0  0  0  0  0  0  0  0  0  0  0
   -1.4884   -3.7557    0.0000 C   0  0  0  0  0  0  0  0  0  0  0  0
   -2.3088   -3.6695    0.0000 Cl  0  0  0  0  0  0  0  0  0  0  0  0
   -1.0034   -3.0882    0.0000 C   0  0  0  0  0  0  0  0  0  0  0  0
    0.0470   -1.7224    0.0000 C   0  0  0  0  0  0  0  0  0  0  0  0
   -0.7376   -1.4675    0.0000 O   0  0  0  0  0  0  0  0  0  0  0  0
  1  2  1  0  0  0  0
  2  3  1  0  0  0  0
  2  4  1  0  0  0  0
  4  5  1  0  0  0  0
  5  6  2  0  0  0  0
  5  7  1  0  0  0  0
  7  8  1  0  0  0  0
  8  9  1  0  0  0  0
  9 10  2  0  0  0  0
  9 11  1  0  0  0  0
 11 12  1  0  0  0  0
 12 13  4  0  0  0  0
 13 14  4  0  0  0  0
 14 15  1  0  0  0  0
 14 16  4  0  0  0  0
 16 17  4  0  0  0  0
 17 18  1  0  0  0  0
 17 19  4  0  0  0  0
 12 19  4  0  0  0  0
 11 20  1  0  0  0  0
  7 20  1  0  0  0  0
 20 21  2  0  0  0  0
M  END
> <activity>
99.24209985

> <InChiKey>
ONUFESLQCSAYKA-UHFFFAOYSA-N

$$$$

  Mrv2220 08292413132D          

 14 14  0  0  0  0            999 V2000
    1.4289   -4.1250    0.0000 C   0  0  0  0  0  0  0  0  0  0  0  0
    2.1434   -3.7125    0.0000 C   0  0  0  0  0  0  0  0  0  0  0  0
    2.1434   -2.8875    0.0000 C   0  0  0  0  0  0  0  0  0  0  0  0
    2.8579   -4.1250    0.0000 C   0  0  0  0  0  0  0  0  0  0  0  0
    3.5724   -3.7125    0.0000 C   0  0  0  0  0  0  0  0  0  0  0  0
    4.2868   -4.1250    0.0000 O   0  0  0  0  0  0  0  0  0  0  0  0
    5.0013   -3.7125    0.0000 C   0  0  0  0  0  0  0  0  0  0  0  0
    5.0013   -2.8875    0.0000 O   0  0  0  0  0  0  0  0  0  0  0  0
    5.7158   -4.1250    0.0000 C   0  0  0  0  0  0  0  0  0  0  0  0
    6.4302   -3.7125    0.0000 C   0  0  0  0  0  0  0  0  0  0  0  0
    7.1447   -4.1250    0.0000 C   0  0  0  0  0  0  0  0  0  0  0  0
    7.1447   -4.9500    0.0000 C   0  0  0  0  0  0  0  0  0  0  0  0
    6.4302   -5.3625    0.0000 C   0  0  0  0  0  0  0  0  0  0  0  0
    5.7158   -4.9500    0.0000 C   0  0  0  0  0  0  0  0  0  0  0  0
  1  2  1  0  0  0  0
  2  3  1  0  0  0  0
  2  4  1  0  0  0  0
  4  5  1  0  0  0  0
  5  6  1  0  0  0  0
  6  7  1  0  0  0  0
  7  8  2  0  0  0  0
  7  9  1  0  0  0  0
  9 10  4  0  0  0  0
 10 11  4  0  0  0  0
 11 12  4  0  0  0  0
 12 13  4  0  0  0  0
 13 14  4  0  0  0  0
  9 14  4  0  0  0  0
M  END
> <activity>
34.52204268

> <InChiKey>
MLLAPOCBLWUFAP-UHFFFAOYSA-N

$$$$

  Mrv2220 08292413132D          

 10 10  0  0  0  0            999 V2000
    2.1434   -0.4125    0.0000 C   0  0  0  0  0  0  0  0  0  0  0  0
    1.4289    0.0000    0.0000 C   0  0  0  0  0  0  0  0  0  0  0  0
    0.7145   -0.4125    0.0000 C   0  0  0  0  0  0  0  0  0  0  0  0
    0.0000    0.0000    0.0000 C   0  0  0  0  0  0  0  0  0  0  0  0
   -0.7145   -0.4125    0.0000 O   0  0  0  0  0  0  0  0  0  0  0  0
    0.0000    0.8250    0.0000 C   0  0  0  0  0  0  0  0  0  0  0  0
    0.7145    1.2375    0.0000 C   0  0  0  0  0  0  0  0  0  0  0  0
    0.1842    1.8695    0.0000 C   0  0  0  0  0  0  0  0  0  0  0  0
    1.2448    1.8695    0.0000 C   0  0  0  0  0  0  0  0  0  0  0  0
    1.4289    0.8250    0.0000 C   0  0  0  0  0  0  0  0  0  0  0  0
  1  2  1  0  0  0  0
  2  3  2  0  0  0  0
  3  4  1  0  0  0  0
  4  5  2  0  0  0  0
  4  6  1  0  0  0  0
  6  7  1  0  0  0  0
  7  8  1  0  0  0  0
  7  9  1  0  0  0  0
  7 10  1  0  0  0  0
  2 10  1  0  0  0  0
M  END
> <activity>
26.14797136

> <InChiKey>
HJOVHMDZYOCNQW-UHFFFAOYSA-N

$$$$

  Mrv2220 08292413132D          

 22 22  0  0  0  0            999 V2000
    0.7145   -2.0625    0.0000 C   0  0  0  0  0  0  0  0  0  0  0  0
    1.4289   -2.4750    0.0000 C   0  0  0  0  0  0  0  0  0  0  0  0
    1.4289   -3.3000    0.0000 C   0  0  0  0  0  0  0  0  0  0  0  0
    2.1434   -3.7125    0.0000 N   0  0  0  0  0  0  0  0  0  0  0  0
    2.8579   -3.3000    0.0000 C   0  0  0  0  0  0  0  0  0  0  0  0
    2.8579   -2.4750    0.0000 C   0  0  0  0  0  0  0  0  0  0  0  0
    3.5724   -2.0625    0.0000 C   0  0  0  0  0  0  0  0  0  0  0  0
    2.1434   -4.5375    0.0000 C   0  0  0  0  0  0  0  0  0  0  0  0
    2.8579   -4.9500    0.0000 C   0  0  0  0  0  0  0  0  0  0  0  0
    3.5724   -4.5375    0.0000 N   0  3  0  0  0  0  0  0  0  0  0  0
    4.2868   -4.9500    0.0000 O   0  0  0  0  0  0  0  0  0  0  0  0
    3.5724   -3.7125    0.0000 O   0  5  0  0  0  0  0  0  0  0  0  0
    2.8579   -5.7750    0.0000 C   0  0  0  0  0  0  0  0  0  0  0  0
    2.1434   -6.1875    0.0000 C   0  0  0  0  0  0  0  0  0  0  0  0
    2.1434   -7.0125    0.0000 C   0  0  0  0  0  0  0  0  0  0  0  0
    2.8579   -7.4250    0.0000 C   0  0  0  0  0  0  0  0  0  0  0  0
    1.4289   -7.4250    0.0000 C   0  0  0  0  0  0  0  0  0  0  0  0
    1.4289   -5.7750    0.0000 C   0  0  0  0  0  0  0  0  0  0  0  0
    1.4289   -4.9500    0.0000 C   0  0  0  0  0  0  0  0  0  0  0  0
    0.7145   -4.5375    0.0000 N   0  3  0  0  0  0  0  0  0  0  0  0
    0.7145   -3.7125    0.0000 O   0  0  0  0  0  0  0  0  0  0  0  0
    0.0000   -4.9500    0.0000 O   0  5  0  0  0  0  0  0  0  0  0  0
  1  2  1  0  0  0  0
  2  3  1  0  0  0  0
  3  4  1  0  0  0  0
  4  5  1  0  0  0  0
  5  6  1  0  0  0  0
  6  7  1  0  0  0  0
  4  8  1  0  0  0  0
  8  9  4  0  0  0  0
  9 10  1  0  0  0  0
 10 11  2  0  0  0  0
 10 12  1  0  0  0  0
  9 13  4  0  0  0  0
 13 14  4  0  0  0  0
 14 15  1  0  0  0  0
 15 16  1  0  0  0  0
 15 17  1  0  0  0  0
 14 18  4  0  0  0  0
 18 19  4  0  0  0  0
  8 19  4  0  0  0  0
 19 20  1  0  0  0  0
 20 21  2  0  0  0  0
 20 22  1  0  0  0  0
M  CHG  4  10   1  12  -1  20   1  22  -1
M  END
> <activity>
82.15626066

> <InChiKey>
NEKOXWSIMFDGMA-UHFFFAOYSA-N

$$$$

  Mrv2220 08292413132D          

 24 26  0  0  0  0            999 V2000
    0.6893   -1.3940    0.0000 C   0  0  0  0  0  0  0  0  0  0  0  0
    0.8608   -0.5870    0.0000 S   0  0  0  0  0  0  0  0  0  0  0  0
    1.6678   -0.7585    0.0000 O   0  0  0  0  0  0  0  0  0  0  0  0
    0.0538   -0.4155    0.0000 O   0  0  0  0  0  0  0  0  0  0  0  0
    1.0323    0.2200    0.0000 C   0  0  0  0  0  0  0  0  0  0  0  0
    0.4192    0.7720    0.0000 C   0  0  0  0  0  0  0  0  0  0  0  0
    0.5908    1.5790    0.0000 C   0  0  0  0  0  0  0  0  0  0  0  0
   -0.0223    2.1310    0.0000 C   0  0  0  0  0  0  0  0  0  0  0  0
   -0.6354    2.6830    0.0000 F   0  0  0  0  0  0  0  0  0  0  0  0
   -0.5744    1.5179    0.0000 F   0  0  0  0  0  0  0  0  0  0  0  0
    0.5297    2.7441    0.0000 F   0  0  0  0  0  0  0  0  0  0  0  0
    1.3754    1.8339    0.0000 C   0  0  0  0  0  0  0  0  0  0  0  0
    1.9885    1.2819    0.0000 C   0  0  0  0  0  0  0  0  0  0  0  0
    1.8170    0.4749    0.0000 C   0  0  0  0  0  0  0  0  0  0  0  0
    2.4301   -0.0771    0.0000 C   0  0  0  0  0  0  0  0  0  0  0  0
    2.2585   -0.8841    0.0000 O   0  0  0  0  0  0  0  0  0  0  0  0
    3.2147    0.1778    0.0000 C   0  0  0  0  0  0  0  0  0  0  0  0
    3.4696    0.9624    0.0000 C   0  0  0  0  0  0  0  0  0  0  0  0
    4.2946    0.9624    0.0000 N   0  0  0  0  0  0  0  0  0  0  0  0
    4.5496    0.1778    0.0000 O   0  0  0  0  0  0  0  0  0  0  0  0
    3.8821   -0.3071    0.0000 C   0  0  0  0  0  0  0  0  0  0  0  0
    3.8821   -1.1321    0.0000 C   0  0  0  0  0  0  0  0  0  0  0  0
    4.2946   -1.8466    0.0000 C   0  0  0  0  0  0  0  0  0  0  0  0
    3.4696   -1.8466    0.0000 C   0  0  0  0  0  0  0  0  0  0  0  0
  1  2  1  0  0  0  0
  2  3  2  0  0  0  0
  2  4  2  0  0  0  0
  2  5  1  0  0  0  0
  5  6  4  0  0  0  0
  6  7  4  0  0  0  0
  7  8  1  0  0  0  0
  8  9  1  0  0  0  0
  8 10  1  0  0  0  0
  8 11  1  0  0  0  0
  7 12  4  0  0  0  0
 12 13  4  0  0  0  0
 13 14  4  0  0  0  0
  5 14  4  0  0  0  0
 14 15  1  0  0  0  0
 15 16  2  0  0  0  0
 15 17  1  0  0  0  0
 17 18  4  0  0  0  0
 18 19  4  0  0  0  0
 19 20  4  0  0  0  0
 20 21  4  0  0  0  0
 17 21  4  0  0  0  0
 21 22  1  0  0  0  0
 22 23  1  0  0  0  0
 23 24  1  0  0  0  0
 22 24  1  0  0  0  0
M  END
> <activity>
68.1409764

> <InChiKey>
OYIKARCXOQLFHF-UHFFFAOYSA-N

$$$$

  Mrv2220 08292413132D          

 24 24  0  0  0  0            999 V2000
    4.2868   -9.0750    0.0000 C   0  0  0  0  0  0  0  0  0  0  0  0
    5.0013   -8.6625    0.0000 C   0  0  0  0  0  0  0  0  0  0  0  0
    5.7158   -9.0750    0.0000 C   0  0  0  0  0  0  0  0  0  0  0  0
    6.4302   -8.6625    0.0000 C   0  0  0  0  0  0  0  0  0  0  0  0
    7.1447   -9.0750    0.0000 C   0  0  0  0  0  0  0  0  0  0  0  0
    7.8592   -8.6625    0.0000 C   0  0  0  0  0  0  0  0  0  0  0  0
    8.5737   -9.0750    0.0000 C   0  0  0  0  0  0  0  0  0  0  0  0
    9.2881   -8.6625    0.0000 C   0  0  0  0  0  0  0  0  0  0  0  0
   10.0026   -9.0750    0.0000 C   0  0  0  0  0  0  0  0  0  0  0  0
   10.7171   -8.6625    0.0000 C   0  0  0  0  0  0  0  0  0  0  0  0
   11.4315   -9.0750    0.0000 C   0  0  0  0  0  0  0  0  0  0  0  0
   12.1460   -8.6625    0.0000 C   0  0  0  0  0  0  0  0  0  0  0  0
   12.8605   -9.0750    0.0000 O   0  0  0  0  0  0  0  0  0  0  0  0
   13.5749   -8.6625    0.0000 C   0  0  0  0  0  0  0  0  0  0  0  0
   13.5749   -7.8375    0.0000 O   0  0  0  0  0  0  0  0  0  0  0  0
   14.2894   -9.0750    0.0000 C   0  0  0  0  0  0  0  0  0  0  0  0
   15.0039   -8.6625    0.0000 C   0  0  0  0  0  0  0  0  0  0  0  0
   15.7184   -9.0750    0.0000 C   0  0  0  0  0  0  0  0  0  0  0  0
   16.4328   -8.6625    0.0000 O   0  0  0  0  0  0  0  0  0  0  0  0
   15.7184   -9.9000    0.0000 C   0  0  0  0  0  0  0  0  0  0  0  0
   16.4328  -10.3125    0.0000 O   0  0  0  0  0  0  0  0  0  0  0  0
   15.0039  -10.3125    0.0000 C   0  0  0  0  0  0  0  0  0  0  0  0
   15.0039  -11.1375    0.0000 O   0  0  0  0  0  0  0  0  0  0  0  0
   14.2894   -9.9000    0.0000 C   0  0  0  0  0  0  0  0  0  0  0  0
  1  2  1  0  0  0  0
  2  3  1  0  0  0  0
  3  4  1  0  0  0  0
  4  5  1  0  0  0  0
  5  6  1  0  0  0  0
  6  7  1  0  0  0  0
  7  8  1  0  0  0  0
  8  9  1  0  0  0  0
  9 10  1  0  0  0  0
 10 11  1  0  0  0  0
 11 12  1  0  0  0  0
 12 13  1  0  0  0  0
 13 14  1  0  0  0  0
 14 15  2  0  0  0  0
 14 16  1  0  0  0  0
 16 17  4  0  0  0  0
 17 18  4  0  0  0  0
 18 19  1  0  0  0  0
 18 20  4  0  0  0  0
 20 21  1  0  0  0  0
 20 22  4  0  0  0  0
 22 23  1  0  0  0  0
 22 24  4  0  0  0  0
 16 24  4  0  0  0  0
M  END
> <activity>
79.44753242

> <InChiKey>
RPWFJAMTCNSJKK-UHFFFAOYSA-N

$$$$

  Mrv2220 08292413132D          

 10 10  0  0  0  0            999 V2000
    0.0000    2.4750    0.0000 C   0  0  0  0  0  0  0  0  0  0  0  0
    0.7145    2.0625    0.0000 C   0  0  0  0  0  0  0  0  0  0  0  0
    1.4289    2.4750    0.0000 C   0  0  0  0  0  0  0  0  0  0  0  0
    0.7145    1.2375    0.0000 C   0  0  0  0  0  0  0  0  0  0  0  0
    1.4289    0.8250    0.0000 C   0  0  0  0  0  0  0  0  0  0  0  0
    1.4289   -0.0000    0.0000 C   0  0  0  0  0  0  0  0  0  0  0  0
    0.7145   -0.4125    0.0000 C   0  0  0  0  0  0  0  0  0  0  0  0
    0.7145   -1.2375    0.0000 C   0  0  0  0  0  0  0  0  0  0  0  0
    0.0000    0.0000    0.0000 C   0  0  0  0  0  0  0  0  0  0  0  0
    0.0000    0.8250    0.0000 C   0  0  0  0  0  0  0  0  0  0  0  0
  1  2  2  0  0  0  0
  2  3  1  0  0  0  0
  2  4  1  0  0  0  0
  4  5  1  0  0  0  0
  5  6  1  0  0  0  0
  6  7  2  0  0  0  0
  7  8  1  0  0  0  0
  7  9  1  0  0  0  0
  9 10  1  0  0  0  0
  4 10  1  0  0  0  0
M  END
> <activity>
5.712964798

> <InChiKey>
XMGQYMWWDOXHJM-UHFFFAOYSA-N

$$$$

  Mrv2220 08292413132D          

 17 18  0  0  0  0            999 V2000
    2.1830   -3.1950    0.0000 C   0  0  0  0  0  0  0  0  0  0  0  0
    2.4379   -2.4104    0.0000 O   0  0  0  0  0  0  0  0  0  0  0  0
    1.8859   -1.7973    0.0000 C   0  0  0  0  0  0  0  0  0  0  0  0
    1.0789   -1.9688    0.0000 C   0  0  0  0  0  0  0  0  0  0  0  0
    0.5269   -1.3557    0.0000 C   0  0  0  0  0  0  0  0  0  0  0  0
    0.7818   -0.5711    0.0000 C   0  0  0  0  0  0  0  0  0  0  0  0
    0.3693    0.1433    0.0000 N   0  0  0  0  0  0  0  0  0  0  0  0
    0.9213    0.7564    0.0000 C   0  0  0  0  0  0  0  0  0  0  0  0
    1.6750    0.4209    0.0000 C   0  0  0  0  0  0  0  0  0  0  0  0
    2.3895    0.8334    0.0000 C   0  0  0  0  0  0  0  0  0  0  0  0
    3.1039    0.4209    0.0000 C   0  0  0  0  0  0  0  0  0  0  0  0
    3.8184    0.8334    0.0000 N   0  0  0  0  0  0  0  0  0  0  0  0
    4.5329    0.4209    0.0000 C   0  0  0  0  0  0  0  0  0  0  0  0
    5.2474    0.8334    0.0000 C   0  0  0  0  0  0  0  0  0  0  0  0
    4.5329   -0.4041    0.0000 O   0  0  0  0  0  0  0  0  0  0  0  0
    1.5888   -0.3996    0.0000 C   0  0  0  0  0  0  0  0  0  0  0  0
    2.1408   -1.0127    0.0000 C   0  0  0  0  0  0  0  0  0  0  0  0
  1  2  1  0  0  0  0
  2  3  1  0  0  0  0
  3  4  4  0  0  0  0
  4  5  4  0  0  0  0
  5  6  4  0  0  0  0
  6  7  4  0  0  0  0
  7  8  4  0  0  0  0
  8  9  4  0  0  0  0
  9 10  1  0  0  0  0
 10 11  1  0  0  0  0
 11 12  1  0  0  0  0
 12 13  1  0  0  0  0
 13 14  1  0  0  0  0
 13 15  2  0  0  0  0
  9 16  4  0  0  0  0
  6 16  4  0  0  0  0
 16 17  4  0  0  0  0
  3 17  4  0  0  0  0
M  STY  1   1 DAT
M  SAL   1  1   7
M  SDT   1 MRV_IMPLICIT_H                                        
M  SDD   1     0.5304   -0.4125    DR    ALL  0       0  
M  SED   1 IMPL_H1
M  END
> <activity>
23.25688708

> <InChiKey>
DRLFMBDRBRZALE-UHFFFAOYSA-N

$$$$

  Mrv2220 08292413132D          

 11 11  0  0  0  0            999 V2000
    0.0000    3.3000    0.0000 C   0  0  0  0  0  0  0  0  0  0  0  0
    0.0000    2.4750    0.0000 O   0  0  0  0  0  0  0  0  0  0  0  0
    0.7145    2.0625    0.0000 C   0  0  0  0  0  0  0  0  0  0  0  0
    1.4289    2.4750    0.0000 O   0  0  0  0  0  0  0  0  0  0  0  0
    0.7145    1.2375    0.0000 C   0  0  0  0  0  0  0  0  0  0  0  0
    1.4289    0.8250    0.0000 C   0  0  0  0  0  0  0  0  0  0  0  0
    1.4289   -0.0000    0.0000 C   0  0  0  0  0  0  0  0  0  0  0  0
    0.7145   -0.4125    0.0000 C   0  0  0  0  0  0  0  0  0  0  0  0
    0.0000    0.0000    0.0000 C   0  0  0  0  0  0  0  0  0  0  0  0
    0.0000    0.8250    0.0000 C   0  0  0  0  0  0  0  0  0  0  0  0
   -0.7145    1.2375    0.0000 C   0  0  0  0  0  0  0  0  0  0  0  0
  1  2  1  0  0  0  0
  2  3  1  0  0  0  0
  3  4  2  0  0  0  0
  3  5  1  0  0  0  0
  5  6  4  0  0  0  0
  6  7  4  0  0  0  0
  7  8  4  0  0  0  0
  8  9  4  0  0  0  0
  9 10  4  0  0  0  0
  5 10  4  0  0  0  0
 10 11  1  0  0  0  0
M  END
> <activity>
15.10844513

> <InChiKey>
WVWZECQNFWFVFW-UHFFFAOYSA-N

$$$$

  Mrv2220 08292413132D          

 21 20  0  0  0  0            999 V2000
   -0.7658    0.3829    0.0000 C   0  0  0  0  0  0  0  0  0  0  0  0
   -0.0513    0.7954    0.0000 C   0  0  0  0  0  0  0  0  0  0  0  0
    0.6632    0.3829    0.0000 C   0  0  0  0  0  0  0  0  0  0  0  0
    1.3776    0.7954    0.0000 C   0  0  0  0  0  0  0  0  0  0  0  0
    2.0921    0.3829    0.0000 C   0  0  0  0  0  0  0  0  0  0  0  0
    2.8066    0.7954    0.0000 C   0  0  0  0  0  0  0  0  0  0  0  0
    3.5211    0.3829    0.0000 C   0  0  0  0  0  0  0  0  0  0  0  0
    4.2355    0.7954    0.0000 C   0  0  0  0  0  0  0  0  0  0  0  0
    4.2355    1.6204    0.0000 C   0  0  0  0  0  0  0  0  0  0  0  0
    4.9500    2.0329    0.0000 C   0  0  0  0  0  0  0  0  0  0  0  0
    4.9500    2.8579    0.0000 C   0  0  0  0  0  0  0  0  0  0  0  0
    5.6645    3.2704    0.0000 C   0  0  0  0  0  0  0  0  0  0  0  0
    6.3789    2.8579    0.0000 C   0  0  0  0  0  0  0  0  0  0  0  0
    7.0934    3.2704    0.0000 C   0  0  0  0  0  0  0  0  0  0  0  0
    7.8079    2.8579    0.0000 C   0  0  0  0  0  0  0  0  0  0  0  0
    8.5224    3.2704    0.0000 C   0  0  0  0  0  0  0  0  0  0  0  0
    9.2368    2.8579    0.0000 C   0  0  0  0  0  0  0  0  0  0  0  0
    9.9513    3.2704    0.0000 C   0  0  0  0  0  0  0  0  0  0  0  0
    9.9513    4.0954    0.0000 O   0  0  0  0  0  0  0  0  0  0  0  0
   10.6658    2.8579    0.0000 O   0  0  0  0  0  0  0  0  0  0  0  0
   11.3802    3.2704    0.0000 C   0  0  0  0  0  0  0  0  0  0  0  0
  1  2  1  0  0  0  0
  2  3  1  0  0  0  0
  3  4  1  0  0  0  0
  4  5  1  0  0  0  0
  6  5  1  4  0  0  0
  6  7  2  0  0  0  0
  7  8  1  0  0  0  0
  9  8  1  4  0  0  0
  9 10  2  0  0  0  0
 10 11  1  0  0  0  0
 11 12  1  0  0  0  0
 12 13  1  0  0  0  0
 13 14  1  0  0  0  0
 14 15  1  0  0  0  0
 15 16  1  0  0  0  0
 16 17  1  0  0  0  0
 17 18  1  0  0  0  0
 18 19  2  0  0  0  0
 18 20  1  0  0  0  0
 20 21  1  0  0  0  0
M  END
> <activity>
85.21879589

> <InChiKey>
WTTJVINHCBCLGX-UHFFFAOYSA-N

$$$$

  Mrv2220 08292413132D          

  7  6  0  0  0  0            999 V2000
    1.7605   -1.0164    0.0000 N   0  0  0  0  0  0  0  0  0  0  0  0
    2.4750   -1.4289    0.0000 C   0  0  0  0  0  0  0  0  0  0  0  0
    3.1895   -1.8414    0.0000 S   0  0  0  0  0  0  0  0  0  0  0  0
    3.9039   -1.4289    0.0000 C   0  0  0  0  0  0  0  0  0  0  0  0
    4.6184   -1.8414    0.0000 S   0  0  0  0  0  0  0  0  0  0  0  0
    5.3329   -1.4289    0.0000 C   0  0  0  0  0  0  0  0  0  0  0  0
    6.0474   -1.0164    0.0000 N   0  0  0  0  0  0  0  0  0  0  0  0
  1  2  3  0  0  0  0
  2  3  1  0  0  0  0
  3  4  1  0  0  0  0
  4  5  1  0  0  0  0
  5  6  1  0  0  0  0
  6  7  3  0  0  0  0
M  END
> <activity>
32.23201175

> <InChiKey>
JWZXKXIUSSIAMR-UHFFFAOYSA-N

$$$$

  Mrv2220 08292413132D          

 14 13  0  0  0  0            999 V2000
    2.4750    1.4289    0.0000 C   0  0  0  0  0  0  0  0  0  0  0  0
    2.0625    0.7145    0.0000 O   0  0  0  0  0  0  0  0  0  0  0  0
    1.2375    0.7145    0.0000 C   0  0  0  0  0  0  0  0  0  0  0  0
    0.8250    1.4289    0.0000 O   0  0  0  0  0  0  0  0  0  0  0  0
    0.8250    0.0000    0.0000 C   0  0  0  0  0  0  0  0  0  0  0  0
    0.0000    0.0000    0.0000 C   0  0  0  0  0  0  0  0  0  0  0  0
   -0.4125    0.7145    0.0000 C   0  0  0  0  0  0  0  0  0  0  0  0
   -0.4125   -0.7145    0.0000 O   0  0  0  0  0  0  0  0  0  0  0  0
   -1.2375   -0.7145    0.0000 P   0  0  0  0  0  0  0  0  0  0  0  0
   -1.2375    0.1105    0.0000 O   0  0  0  0  0  0  0  0  0  0  0  0
   -2.0625   -0.7145    0.0000 O   0  0  0  0  0  0  0  0  0  0  0  0
   -2.4750   -1.4289    0.0000 C   0  0  0  0  0  0  0  0  0  0  0  0
   -1.2375   -1.5395    0.0000 O   0  0  0  0  0  0  0  0  0  0  0  0
   -1.9520   -1.9520    0.0000 C   0  0  0  0  0  0  0  0  0  0  0  0
  1  2  1  0  0  0  0
  2  3  1  0  0  0  0
  3  4  2  0  0  0  0
  5  3  1  4  0  0  0
  5  6  2  0  0  0  0
  6  7  1  0  0  0  0
  6  8  1  0  0  0  0
  8  9  1  0  0  0  0
  9 10  2  0  0  0  0
  9 11  1  0  0  0  0
 11 12  1  0  0  0  0
  9 13  1  0  0  0  0
 13 14  1  0  0  0  0
M  END
> <activity>
13.65691376

> <InChiKey>
GEPDYQSQVLXLEU-UHFFFAOYSA-N

$$$$

  Mrv2220 08292413132D          

 19 20  0  0  0  0            999 V2000
    3.5724   -1.2375    0.0000 O   0  0  0  0  0  0  0  0  0  0  0  0
    2.8579   -1.6500    0.0000 C   0  0  0  0  0  0  0  0  0  0  0  0
    2.1434   -1.2375    0.0000 O   0  0  0  0  0  0  0  0  0  0  0  0
    2.8579   -2.4750    0.0000 C   0  0  0  0  0  0  0  0  0  0  0  0
    3.5724   -2.8875    0.0000 C   0  0  0  0  0  0  0  0  0  0  0  0
    3.5724   -3.7125    0.0000 C   0  0  0  0  0  0  0  0  0  0  0  0
    2.8579   -4.1250    0.0000 C   0  0  0  0  0  0  0  0  0  0  0  0
    2.1434   -3.7125    0.0000 C   0  0  0  0  0  0  0  0  0  0  0  0
    2.1434   -2.8875    0.0000 C   0  0  0  0  0  0  0  0  0  0  0  0
    1.4289   -2.4750    0.0000 C   0  0  0  0  0  0  0  0  0  0  0  0
    0.7145   -2.8875    0.0000 O   0  0  0  0  0  0  0  0  0  0  0  0
    1.4289   -1.6500    0.0000 O   0  0  0  0  0  0  0  0  0  0  0  0
    0.7145   -1.2375    0.0000 C   0  0  0  0  0  0  0  0  0  0  0  0
    0.7145   -0.4125    0.0000 C   0  0  0  0  0  0  0  0  0  0  0  0
    0.0000    0.0000    0.0000 C   0  0  0  0  0  0  0  0  0  0  0  0
    0.0000    0.8250    0.0000 C   0  0  0  0  0  0  0  0  0  0  0  0
    0.7145    1.2375    0.0000 C   0  0  0  0  0  0  0  0  0  0  0  0
    1.4289    0.8250    0.0000 C   0  0  0  0  0  0  0  0  0  0  0  0
    1.4289    0.0000    0.0000 C   0  0  0  0  0  0  0  0  0  0  0  0
  1  2  2  0  0  0  0
  2  3  1  0  0  0  0
  2  4  1  0  0  0  0
  4  5  4  0  0  0  0
  5  6  4  0  0  0  0
  6  7  4  0  0  0  0
  7  8  4  0  0  0  0
  8  9  4  0  0  0  0
  4  9  4  0  0  0  0
  9 10  1  0  0  0  0
 10 11  2  0  0  0  0
 10 12  1  0  0  0  0
 12 13  1  0  0  0  0
 13 14  1  0  0  0  0
 14 15  4  0  0  0  0
 15 16  4  0  0  0  0
 16 17  4  0  0  0  0
 17 18  4  0  0  0  0
 18 19  4  0  0  0  0
 14 19  4  0  0  0  0
M  END
> <activity>
70.69078615

> <InChiKey>
XIKIUQUXDNHBFR-UHFFFAOYSA-N

$$$$

  Mrv2220 08292413132D          

 20 21  0  0  0  0            999 V2000
    2.3155   -2.0494    0.0000 C   0  0  0  0  0  0  0  0  0  0  0  0
    1.4905   -2.0494    0.0000 C   0  0  0  0  0  0  0  0  0  0  0  0
    1.0780   -1.3349    0.0000 C   0  0  0  0  0  0  0  0  0  0  0  0
    0.2530   -1.3349    0.0000 C   0  0  0  0  0  0  0  0  0  0  0  0
   -0.1595   -0.6204    0.0000 C   0  0  0  0  0  0  0  0  0  0  0  0
    0.5550   -0.2079    0.0000 C   0  0  0  0  0  0  0  0  0  0  0  0
    1.2695    0.2046    0.0000 N   0  0  0  0  0  0  0  0  0  0  0  0
   -0.8739   -1.0329    0.0000 C   0  0  0  0  0  0  0  0  0  0  0  0
   -0.8739   -1.8579    0.0000 N   0  0  0  0  0  0  0  0  0  0  0  0
   -1.5414   -2.3429    0.0000 C   0  0  0  0  0  0  0  0  0  0  0  0
   -1.2864   -3.1275    0.0000 N   0  0  0  0  0  0  0  0  0  0  0  0
   -0.4614   -3.1275    0.0000 C   0  0  0  0  0  0  0  0  0  0  0  0
   -0.2065   -2.3429    0.0000 N   0  0  0  0  0  0  0  0  0  0  0  0
   -0.5720    0.0940    0.0000 C   0  0  0  0  0  0  0  0  0  0  0  0
   -1.3970    0.0940    0.0000 C   0  0  0  0  0  0  0  0  0  0  0  0
   -1.8095    0.8085    0.0000 C   0  0  0  0  0  0  0  0  0  0  0  0
   -1.3970    1.5230    0.0000 C   0  0  0  0  0  0  0  0  0  0  0  0
   -1.8095    2.2374    0.0000 Cl  0  0  0  0  0  0  0  0  0  0  0  0
   -0.5720    1.5230    0.0000 C   0  0  0  0  0  0  0  0  0  0  0  0
   -0.1595    0.8085    0.0000 C   0  0  0  0  0  0  0  0  0  0  0  0
  1  2  1  0  0  0  0
  2  3  1  0  0  0  0
  3  4  1  0  0  0  0
  4  5  1  0  0  0  0
  5  6  1  0  0  0  0
  6  7  3  0  0  0  0
  5  8  1  0  0  0  0
  8  9  1  0  0  0  0
  9 10  4  0  0  0  0
 10 11  4  0  0  0  0
 11 12  4  0  0  0  0
 12 13  4  0  0  0  0
  9 13  4  0  0  0  0
  5 14  1  0  0  0  0
 14 15  4  0  0  0  0
 15 16  4  0  0  0  0
 16 17  4  0  0  0  0
 17 18  1  0  0  0  0
 17 19  4  0  0  0  0
 19 20  4  0  0  0  0
 14 20  4  0  0  0  0
M  END
> <activity>
38.31732968

> <InChiKey>
HZJKXKUJVSEEFU-UHFFFAOYSA-N

$$$$

  Mrv2220 08292413132D          

 18 20  0  0  0  0            999 V2000
    0.8838    0.7541    0.0000 O   0  0  0  0  0  0  0  0  0  0  0  0
    1.1387   -0.0305    0.0000 C   0  0  0  0  0  0  0  0  0  0  0  0
    1.9233   -0.2854    0.0000 C   0  0  0  0  0  0  0  0  0  0  0  0
    2.6378    0.1271    0.0000 C   0  0  0  0  0  0  0  0  0  0  0  0
    3.3523   -0.2854    0.0000 C   0  0  0  0  0  0  0  0  0  0  0  0
    3.3523   -1.1104    0.0000 C   0  0  0  0  0  0  0  0  0  0  0  0
    2.6378   -1.5229    0.0000 C   0  0  0  0  0  0  0  0  0  0  0  0
    1.9233   -1.1104    0.0000 C   0  0  0  0  0  0  0  0  0  0  0  0
    1.1387   -1.3654    0.0000 C   0  0  0  0  0  0  0  0  0  0  0  0
    0.8838   -2.1500    0.0000 O   0  0  0  0  0  0  0  0  0  0  0  0
    0.6538   -0.6979    0.0000 N   0  0  0  0  0  0  0  0  0  0  0  0
   -0.1712   -0.6979    0.0000 S   0  0  0  0  0  0  0  0  0  0  0  0
   -0.5837    0.0165    0.0000 C   0  0  0  0  0  0  0  0  0  0  0  0
   -1.4087    0.0165    0.0000 C   0  0  0  0  0  0  0  0  0  0  0  0
   -1.8212    0.7310    0.0000 C   0  0  0  0  0  0  0  0  0  0  0  0
   -1.4087    1.4455    0.0000 C   0  0  0  0  0  0  0  0  0  0  0  0
   -0.5837    1.4455    0.0000 C   0  0  0  0  0  0  0  0  0  0  0  0
   -0.1712    0.7310    0.0000 C   0  0  0  0  0  0  0  0  0  0  0  0
  1  2  2  0  0  0  0
  2  3  1  0  0  0  0
  3  4  4  0  0  0  0
  4  5  4  0  0  0  0
  5  6  4  0  0  0  0
  6  7  4  0  0  0  0
  7  8  4  0  0  0  0
  3  8  4  0  0  0  0
  8  9  1  0  0  0  0
  9 10  2  0  0  0  0
  9 11  1  0  0  0  0
  2 11  1  0  0  0  0
 11 12  1  0  0  0  0
 12 13  1  0  0  0  0
 13 14  1  0  0  0  0
 14 15  1  0  0  0  0
 15 16  1  0  0  0  0
 16 17  1  0  0  0  0
 17 18  1  0  0  0  0
 13 18  1  0  0  0  0
M  END
> <activity>
59.83259912

> <InChiKey>
UEZWYKZHXASYJN-UHFFFAOYSA-N

$$$$

  Mrv2220 08292413132D          

 15 15  0  0  0  0            999 V2000
   -0.7145    5.3625    0.0000 C   0  0  0  0  0  0  0  0  0  0  0  0
   -0.7145    4.5375    0.0000 C   0  0  0  0  0  0  0  0  0  0  0  0
    0.0000    4.1250    0.0000 C   0  0  0  0  0  0  0  0  0  0  0  0
    0.0000    3.3000    0.0000 C   0  0  0  0  0  0  0  0  0  0  0  0
    0.7145    2.8875    0.0000 N   0  0  0  0  0  0  0  0  0  0  0  0
    0.7145    2.0625    0.0000 S   0  0  0  0  0  0  0  0  0  0  0  0
   -0.1105    2.0625    0.0000 O   0  0  0  0  0  0  0  0  0  0  0  0
    1.5395    2.0625    0.0000 O   0  0  0  0  0  0  0  0  0  0  0  0
    0.7145    1.2375    0.0000 C   0  0  0  0  0  0  0  0  0  0  0  0
    1.4289    0.8250    0.0000 C   0  0  0  0  0  0  0  0  0  0  0  0
    1.4289   -0.0000    0.0000 C   0  0  0  0  0  0  0  0  0  0  0  0
    0.7145   -0.4125    0.0000 C   0  0  0  0  0  0  0  0  0  0  0  0
    0.7145   -1.2375    0.0000 C   0  0  0  0  0  0  0  0  0  0  0  0
    0.0000    0.0000    0.0000 C   0  0  0  0  0  0  0  0  0  0  0  0
    0.0000    0.8250    0.0000 C   0  0  0  0  0  0  0  0  0  0  0  0
  1  2  1  0  0  0  0
  2  3  1  0  0  0  0
  3  4  1  0  0  0  0
  4  5  1  0  0  0  0
  5  6  1  0  0  0  0
  6  7  2  0  0  0  0
  6  8  2  0  0  0  0
  6  9  1  0  0  0  0
  9 10  4  0  0  0  0
 10 11  4  0  0  0  0
 11 12  4  0  0  0  0
 12 13  1  0  0  0  0
 12 14  4  0  0  0  0
 14 15  4  0  0  0  0
  9 15  4  0  0  0  0
M  END
> <activity>
18.45559151

> <InChiKey>
RQUXYBHREKXNKT-UHFFFAOYSA-N

$$$$

  Mrv2220 08292413132D          

 10 10  0  0  0  0            999 V2000
    0.0000    3.3000    0.0000 C   0  0  0  0  0  0  0  0  0  0  0  0
    0.0000    2.4750    0.0000 C   0  0  0  0  0  0  0  0  0  0  0  0
    0.7145    2.0625    0.0000 N   0  0  0  0  0  0  0  0  0  0  0  0
    0.7145    1.2375    0.0000 C   0  0  0  0  0  0  0  0  0  0  0  0
    1.4289    0.8250    0.0000 C   0  0  0  0  0  0  0  0  0  0  0  0
    1.4289   -0.0000    0.0000 C   0  0  0  0  0  0  0  0  0  0  0  0
    0.7145   -0.4125    0.0000 C   0  0  0  0  0  0  0  0  0  0  0  0
    0.0000    0.0000    0.0000 C   0  0  0  0  0  0  0  0  0  0  0  0
   -0.7145   -0.4125    0.0000 C   0  0  0  0  0  0  0  0  0  0  0  0
    0.0000    0.8250    0.0000 C   0  0  0  0  0  0  0  0  0  0  0  0
  1  2  1  0  0  0  0
  2  3  1  0  0  0  0
  3  4  1  0  0  0  0
  4  5  4  0  0  0  0
  5  6  4  0  0  0  0
  6  7  4  0  0  0  0
  7  8  4  0  0  0  0
  8  9  1  0  0  0  0
  8 10  4  0  0  0  0
  4 10  4  0  0  0  0
M  END
> <activity>
13.29528335

> <InChiKey>
GUYMMHOQXYZMJQ-UHFFFAOYSA-N

$$$$

  Mrv2220 08292413132D          

  7  7  0  0  0  0            999 V2000
   -0.1467    2.3518    0.0000 O   0  0  0  0  0  0  0  0  0  0  0  0
    0.5678    1.9393    0.0000 N   0  0  0  0  0  0  0  0  0  0  0  0
    0.5678    1.1143    0.0000 N   0  0  0  0  0  0  0  0  0  0  0  0
    1.2352    0.6294    0.0000 C   0  0  0  0  0  0  0  0  0  0  0  0
    0.9803   -0.1553    0.0000 C   0  0  0  0  0  0  0  0  0  0  0  0
    0.1553   -0.1553    0.0000 C   0  0  0  0  0  0  0  0  0  0  0  0
   -0.0997    0.6294    0.0000 C   0  0  0  0  0  0  0  0  0  0  0  0
  1  2  2  0  0  0  0
  2  3  1  0  0  0  0
  3  4  1  0  0  0  0
  4  5  1  0  0  0  0
  5  6  1  0  0  0  0
  6  7  1  0  0  0  0
  3  7  1  0  0  0  0
M  END
> <activity>
8.039673978

> <InChiKey>
WNYADZVDBIBLJJ-UHFFFAOYSA-N

$$$$

  Mrv2220 08292413132D          

 14 13  0  0  0  0            999 V2000
   -1.4289    3.9039    0.0000 C   0  0  0  0  0  0  0  0  0  0  0  0
   -0.7145    3.4914    0.0000 C   0  0  0  0  0  0  0  0  0  0  0  0
   -0.7145    2.6664    0.0000 C   0  0  0  0  0  0  0  0  0  0  0  0
   -0.0000    2.2539    0.0000 C   0  0  0  0  0  0  0  0  0  0  0  0
   -0.0000    1.4289    0.0000 N   0  3  0  0  0  0  0  0  0  0  0  0
   -0.8250    1.4289    0.0000 C   0  0  0  0  0  0  0  0  0  0  0  0
   -0.0000    0.6039    0.0000 C   0  0  0  0  0  0  0  0  0  0  0  0
   -0.7145    0.1914    0.0000 C   0  0  0  0  0  0  0  0  0  0  0  0
   -1.4289    0.6039    0.0000 C   0  0  0  0  0  0  0  0  0  0  0  0
   -2.1434    0.1914    0.0000 C   0  0  0  0  0  0  0  0  0  0  0  0
    0.8250    1.4289    0.0000 C   0  0  0  0  0  0  0  0  0  0  0  0
    1.2375    0.7145    0.0000 C   0  0  0  0  0  0  0  0  0  0  0  0
    0.8250    0.0000    0.0000 C   0  0  0  0  0  0  0  0  0  0  0  0
    0.0000    0.0000    0.0000 C   0  0  0  0  0  0  0  0  0  0  0  0
  1  2  1  0  0  0  0
  2  3  1  0  0  0  0
  3  4  1  0  0  0  0
  4  5  1  0  0  0  0
  5  6  1  0  0  0  0
  5  7  1  0  0  0  0
  7  8  1  0  0  0  0
  8  9  1  0  0  0  0
  9 10  1  0  0  0  0
  5 11  1  0  0  0  0
 11 12  1  0  0  0  0
 12 13  1  0  0  0  0
 13 14  1  0  0  0  0
M  CHG  1   5   1
M  END
> <activity>
12.15457387

> <InChiKey>
HJHUXWBTVVFLQI-UHFFFAOYSA-N

$$$$

  Mrv2220 08292413132D          

  6  5  0  0  0  0            999 V2000
    0.8250    1.4289    0.0000 C   0  0  0  0  0  0  0  0  0  0  0  0
    1.2375    0.7145    0.0000 C   0  0  0  0  0  0  0  0  0  0  0  0
    2.0625    0.7145    0.0000 O   0  0  0  0  0  0  0  0  0  0  0  0
    0.8250    0.0000    0.0000 N   0  0  0  0  0  0  0  0  0  0  0  0
    1.2375   -0.7145    0.0000 C   0  0  0  0  0  0  0  0  0  0  0  0
    0.0000    0.0000    0.0000 C   0  0  0  0  0  0  0  0  0  0  0  0
  1  2  1  0  0  0  0
  2  3  2  0  0  0  0
  2  4  1  0  0  0  0
  4  5  1  0  0  0  0
  4  6  1  0  0  0  0
M  END
> <activity>
18.58873578

> <InChiKey>
FXHOOIRPVKKKFG-UHFFFAOYSA-N

$$$$

  Mrv2220 08292413132D          

  9  9  0  0  0  0            999 V2000
    0.0000    2.4750    0.0000 C   0  0  0  0  0  0  0  0  0  0  0  0
    0.7145    2.0625    0.0000 N   0  0  0  0  0  0  0  0  0  0  0  0
    1.4289    2.4750    0.0000 C   0  0  0  0  0  0  0  0  0  0  0  0
    0.7145    1.2375    0.0000 C   0  0  0  0  0  0  0  0  0  0  0  0
    1.4289    0.8250    0.0000 C   0  0  0  0  0  0  0  0  0  0  0  0
    1.4289   -0.0000    0.0000 C   0  0  0  0  0  0  0  0  0  0  0  0
    0.7145   -0.4125    0.0000 C   0  0  0  0  0  0  0  0  0  0  0  0
    0.0000    0.0000    0.0000 C   0  0  0  0  0  0  0  0  0  0  0  0
    0.0000    0.8250    0.0000 C   0  0  0  0  0  0  0  0  0  0  0  0
  1  2  1  0  0  0  0
  2  3  1  0  0  0  0
  2  4  1  0  0  0  0
  4  5  4  0  0  0  0
  5  6  4  0  0  0  0
  6  7  4  0  0  0  0
  7  8  4  0  0  0  0
  8  9  4  0  0  0  0
  4  9  4  0  0  0  0
M  END
> <activity>
26.00625244

> <InChiKey>
JLTDJTHDQAWBAV-UHFFFAOYSA-N

$$$$

  Mrv2220 08292413132D          

  9  9  0  0  0  0            999 V2000
    0.0000    2.4750    0.0000 N   0  0  0  0  0  0  0  0  0  0  0  0
    0.7145    2.0625    0.0000 C   0  0  0  0  0  0  0  0  0  0  0  0
    1.4289    2.4750    0.0000 O   0  0  0  0  0  0  0  0  0  0  0  0
    0.7145    1.2375    0.0000 C   0  0  0  0  0  0  0  0  0  0  0  0
    1.4289    0.8250    0.0000 C   0  0  0  0  0  0  0  0  0  0  0  0
    1.4289   -0.0000    0.0000 C   0  0  0  0  0  0  0  0  0  0  0  0
    0.7145   -0.4125    0.0000 C   0  0  0  0  0  0  0  0  0  0  0  0
    0.0000    0.0000    0.0000 N   0  0  0  0  0  0  0  0  0  0  0  0
    0.0000    0.8250    0.0000 C   0  0  0  0  0  0  0  0  0  0  0  0
  1  2  1  0  0  0  0
  2  3  2  0  0  0  0
  2  4  1  0  0  0  0
  4  5  4  0  0  0  0
  5  6  4  0  0  0  0
  6  7  4  0  0  0  0
  7  8  4  0  0  0  0
  8  9  4  0  0  0  0
  4  9  4  0  0  0  0
M  END
> <activity>
0.420542883

> <InChiKey>
DFPAKSUCGFBDDF-UHFFFAOYSA-N

$$$$

  Mrv2220 08292413132D          

 27 29  0  0  0  0            999 V2000
    2.4750    1.6500    0.0000 C   0  0  0  0  0  0  0  0  0  0  0  0
    1.7605    1.2375    0.0000 O   0  0  0  0  0  0  0  0  0  0  0  0
    1.7605    0.4125    0.0000 C   0  0  0  0  0  0  0  0  0  0  0  0
    2.4750   -0.0000    0.0000 C   0  0  0  0  0  0  0  0  0  0  0  0
    3.1895    0.4125    0.0000 O   0  0  0  0  0  0  0  0  0  0  0  0
    3.9039    0.0000    0.0000 C   0  0  0  0  0  0  0  0  0  0  0  0
    3.9039   -0.8250    0.0000 O   0  0  0  0  0  0  0  0  0  0  0  0
    4.6184    0.4125    0.0000 N   0  0  0  0  0  0  0  0  0  0  0  0
    5.3329    0.0000    0.0000 C   0  0  0  0  0  0  0  0  0  0  0  0
    5.3329   -0.8250    0.0000 O   0  0  0  0  0  0  0  0  0  0  0  0
    6.0474    0.4125    0.0000 C   0  0  0  0  0  0  0  0  0  0  0  0
    6.7618    0.0000    0.0000 Cl  0  0  0  0  0  0  0  0  0  0  0  0
    2.4750   -0.8250    0.0000 C   0  0  0  0  0  0  0  0  0  0  0  0
    1.7605   -1.2375    0.0000 C   0  0  0  0  0  0  0  0  0  0  0  0
    1.0461   -0.8250    0.0000 C   0  0  0  0  0  0  0  0  0  0  0  0
    0.6336   -1.5395    0.0000 C   0  0  0  0  0  0  0  0  0  0  0  0
    0.2211   -0.8250    0.0000 O   0  0  0  0  0  0  0  0  0  0  0  0
    1.0461   -0.0000    0.0000 C   0  0  0  0  0  0  0  0  0  0  0  0
    0.3316    0.4125    0.0000 C   0  0  0  0  0  0  0  0  0  0  0  0
    0.6138    1.1877    0.0000 C   0  0  0  0  0  0  0  0  0  0  0  0
   -0.1987   -0.2195    0.0000 O   0  0  0  0  0  0  0  0  0  0  0  0
   -0.4809    0.5558    0.0000 C   0  0  0  0  0  0  0  0  0  0  0  0
   -1.1129    1.0861    0.0000 C   0  0  0  0  0  0  0  0  0  0  0  0
   -1.8881    0.8039    0.0000 C   0  0  0  0  0  0  0  0  0  0  0  0
   -2.5201    1.3342    0.0000 C   0  0  0  0  0  0  0  0  0  0  0  0
   -3.2953    1.0520    0.0000 C   0  0  0  0  0  0  0  0  0  0  0  0
   -2.3768    2.1467    0.0000 C   0  0  0  0  0  0  0  0  0  0  0  0
  1  2  1  0  0  0  0
  2  3  1  0  0  0  0
  3  4  1  0  0  0  0
  4  5  1  0  0  0  0
  5  6  1  0  0  0  0
  6  7  2  0  0  0  0
  6  8  1  0  0  0  0
  8  9  1  0  0  0  0
  9 10  2  0  0  0  0
  9 11  1  0  0  0  0
 11 12  1  0  0  0  0
  4 13  1  0  0  0  0
 13 14  1  0  0  0  0
 14 15  1  0  0  0  0
 15 16  1  0  0  0  0
 16 17  1  0  0  0  0
 15 17  1  0  0  0  0
 15 18  1  0  0  0  0
  3 18  1  0  0  0  0
 18 19  1  0  0  0  0
 19 20  1  0  0  0  0
 19 21  1  0  0  0  0
 21 22  1  0  0  0  0
 19 22  1  0  0  0  0
 22 23  1  0  0  0  0
 23 24  1  0  0  0  0
 24 25  2  0  0  0  0
 25 26  1  0  0  0  0
 25 27  1  0  0  0  0
M  END
> <activity>
-19.68082884

> <InChiKey>
MSHZHSPISPJWHW-UHFFFAOYSA-N

$$$$

  Mrv2220 08292413132D          

 13 12  0  0  0  0            999 V2000
   -0.6039   -3.3000    0.0000 C   0  0  0  0  0  0  0  0  0  0  0  0
   -0.6039   -2.4750    0.0000 Si  0  0  0  0  0  0  0  0  0  0  0  0
    0.2211   -2.4750    0.0000 C   0  0  0  0  0  0  0  0  0  0  0  0
   -1.4289   -2.4750    0.0000 C   0  0  0  0  0  0  0  0  0  0  0  0
   -0.6039   -1.6500    0.0000 O   0  0  0  0  0  0  0  0  0  0  0  0
    0.1105   -1.2375    0.0000 Si  0  0  0  0  0  0  0  0  0  0  0  0
    0.5230   -1.9520    0.0000 C   0  0  0  0  0  0  0  0  0  0  0  0
   -0.3020   -0.5230    0.0000 C   0  0  0  0  0  0  0  0  0  0  0  0
    0.8250   -0.8250    0.0000 O   0  0  0  0  0  0  0  0  0  0  0  0
    0.8250    0.0000    0.0000 Si  0  0  0  0  0  0  0  0  0  0  0  0
    0.8250    0.8250    0.0000 C   0  0  0  0  0  0  0  0  0  0  0  0
    1.6500   -0.0000    0.0000 C   0  0  0  0  0  0  0  0  0  0  0  0
    0.0000    0.0000    0.0000 C   0  0  0  0  0  0  0  0  0  0  0  0
  1  2  1  0  0  0  0
  2  3  1  0  0  0  0
  2  4  1  0  0  0  0
  2  5  1  0  0  0  0
  5  6  1  0  0  0  0
  6  7  1  0  0  0  0
  6  8  1  0  0  0  0
  6  9  1  0  0  0  0
  9 10  1  0  0  0  0
 10 11  1  0  0  0  0
 10 12  1  0  0  0  0
 10 13  1  0  0  0  0
M  END
> <activity>
4.638518977

> <InChiKey>
CXQXSVUQTKDNFP-UHFFFAOYSA-N

$$$$

  Mrv2220 08292413132D          

  9  9  0  0  0  0            999 V2000
    0.0000    2.4750    0.0000 C   0  0  0  0  0  0  0  0  0  0  0  0
    0.7145    2.0625    0.0000 O   0  0  0  0  0  0  0  0  0  0  0  0
    0.7145    1.2375    0.0000 C   0  0  0  0  0  0  0  0  0  0  0  0
    1.4289    0.8250    0.0000 C   0  0  0  0  0  0  0  0  0  0  0  0
    1.4289   -0.0000    0.0000 C   0  0  0  0  0  0  0  0  0  0  0  0
    0.7145   -0.4125    0.0000 C   0  0  0  0  0  0  0  0  0  0  0  0
    0.7145   -1.2375    0.0000 N   0  0  0  0  0  0  0  0  0  0  0  0
    0.0000    0.0000    0.0000 C   0  0  0  0  0  0  0  0  0  0  0  0
    0.0000    0.8250    0.0000 C   0  0  0  0  0  0  0  0  0  0  0  0
  1  2  1  0  0  0  0
  2  3  1  0  0  0  0
  3  4  4  0  0  0  0
  4  5  4  0  0  0  0
  5  6  4  0  0  0  0
  6  7  1  0  0  0  0
  6  8  4  0  0  0  0
  8  9  4  0  0  0  0
  3  9  4  0  0  0  0
M  END
> <activity>
19.36512646

> <InChiKey>
BHAAPTBBJKJZER-UHFFFAOYSA-N

$$$$

  Mrv2220 08292413132D          

  8  8  0  0  0  0            999 V2000
    0.7145    2.0625    0.0000 C   0  0  0  0  0  0  0  0  0  0  0  0
    0.7145    1.2375    0.0000 C   0  0  0  0  0  0  0  0  0  0  0  0
    1.4289    0.8250    0.0000 C   0  0  0  0  0  0  0  0  0  0  0  0
    1.4289   -0.0000    0.0000 C   0  0  0  0  0  0  0  0  0  0  0  0
    0.7145   -0.4125    0.0000 C   0  0  0  0  0  0  0  0  0  0  0  0
    0.7145   -1.2375    0.0000 O   0  0  0  0  0  0  0  0  0  0  0  0
    0.0000    0.0000    0.0000 C   0  0  0  0  0  0  0  0  0  0  0  0
    0.0000    0.8250    0.0000 C   0  0  0  0  0  0  0  0  0  0  0  0
  1  2  1  0  0  0  0
  2  3  4  0  0  0  0
  3  4  4  0  0  0  0
  4  5  4  0  0  0  0
  5  6  1  0  0  0  0
  5  7  4  0  0  0  0
  7  8  4  0  0  0  0
  2  8  4  0  0  0  0
M  END
> <activity>
20.40143369

> <InChiKey>
IWDCLRJOBJJRNH-UHFFFAOYSA-N

$$$$

  Mrv2220 08292413132D          

 13 12  0  0  0  0            999 V2000
    2.2836    2.1434    0.0000 C   0  0  0  0  0  0  0  0  0  0  0  0
    2.9980    2.5559    0.0000 C   0  0  0  0  0  0  0  0  0  0  0  0
    3.7125    2.1434    0.0000 C   0  0  0  0  0  0  0  0  0  0  0  0
    4.4270    2.5559    0.0000 C   0  0  0  0  0  0  0  0  0  0  0  0
    5.1414    2.1434    0.0000 N   0  0  0  0  0  0  0  0  0  0  0  0
    5.1414    1.3184    0.0000 C   0  0  0  0  0  0  0  0  0  0  0  0
    5.8559    0.9059    0.0000 C   0  0  0  0  0  0  0  0  0  0  0  0
    5.8559    2.5559    0.0000 C   0  0  0  0  0  0  0  0  0  0  0  0
    5.8559    3.3809    0.0000 O   0  0  0  0  0  0  0  0  0  0  0  0
    6.5704    2.1434    0.0000 S   0  0  0  0  0  0  0  0  0  0  0  0
    7.2849    2.5559    0.0000 C   0  0  0  0  0  0  0  0  0  0  0  0
    7.9993    2.1434    0.0000 C   0  0  0  0  0  0  0  0  0  0  0  0
    8.7138    2.5559    0.0000 C   0  0  0  0  0  0  0  0  0  0  0  0
  1  2  1  0  0  0  0
  2  3  1  0  0  0  0
  3  4  1  0  0  0  0
  4  5  1  0  0  0  0
  5  6  1  0  0  0  0
  6  7  1  0  0  0  0
  5  8  1  0  0  0  0
  8  9  2  0  0  0  0
  8 10  1  0  0  0  0
 10 11  1  0  0  0  0
 11 12  1  0  0  0  0
 12 13  1  0  0  0  0
M  END
> <activity>
2.28283676

> <InChiKey>
SGEJQUSYQTVSIU-UHFFFAOYSA-N

$$$$

  Mrv2220 08292413132D          

 25 28  0  0  0  0            999 V2000
    5.9902   -0.2077    0.0000 C   0  0  0  0  0  0  0  0  0  0  0  0
    5.5591    0.4958    0.0000 C   0  0  0  0  0  0  0  0  0  0  0  0
    5.8749    1.2579    0.0000 N   0  0  0  0  0  0  0  0  0  0  0  0
    5.2476    1.7938    0.0000 N   0  0  0  0  0  0  0  0  0  0  0  0
    4.5441    1.3627    0.0000 C   0  0  0  0  0  0  0  0  0  0  0  0
    4.7367    0.5605    0.0000 C   0  0  0  0  0  0  0  0  0  0  0  0
    4.2295   -0.0902    0.0000 N   0  0  0  0  0  0  0  0  0  0  0  0
    3.4046   -0.0994    0.0000 C   0  0  0  0  0  0  0  0  0  0  0  0
    3.0550   -0.8467    0.0000 C   0  0  0  0  0  0  0  0  0  0  0  0
    3.5273   -1.5231    0.0000 C   0  0  0  0  0  0  0  0  0  0  0  0
    3.1777   -2.2703    0.0000 C   0  0  0  0  0  0  0  0  0  0  0  0
    2.3557   -2.3412    0.0000 C   0  0  0  0  0  0  0  0  0  0  0  0
    1.8834   -1.6648    0.0000 C   0  0  0  0  0  0  0  0  0  0  0  0
    2.2330   -0.9175    0.0000 C   0  0  0  0  0  0  0  0  0  0  0  0
    1.7607   -0.2411    0.0000 Cl  0  0  0  0  0  0  0  0  0  0  0  0
    2.8830    0.5398    0.0000 C   0  0  0  0  0  0  0  0  0  0  0  0
    2.0974    0.2878    0.0000 C   0  0  0  0  0  0  0  0  0  0  0  0
    1.4864    0.8422    0.0000 C   0  0  0  0  0  0  0  0  0  0  0  0
    0.7009    0.5902    0.0000 N   0  3  0  0  0  0  0  0  0  0  0  0
    0.5263   -0.2161    0.0000 O   0  0  0  0  0  0  0  0  0  0  0  0
    0.0899    1.1446    0.0000 O   0  5  0  0  0  0  0  0  0  0  0  0
    1.6610    1.6485    0.0000 C   0  0  0  0  0  0  0  0  0  0  0  0
    2.4466    1.9005    0.0000 C   0  0  0  0  0  0  0  0  0  0  0  0
    3.0576    1.3461    0.0000 C   0  0  0  0  0  0  0  0  0  0  0  0
    3.7969    1.7124    0.0000 N   0  0  0  0  0  0  0  0  0  0  0  0
  1  2  1  0  0  0  0
  2  3  4  0  0  0  0
  3  4  4  0  0  0  0
  4  5  4  0  0  0  0
  5  6  4  0  0  0  0
  2  6  4  0  0  0  0
  6  7  1  0  0  0  0
  7  8  2  0  0  0  0
  8  9  1  0  0  0  0
  9 10  4  0  0  0  0
 10 11  4  0  0  0  0
 11 12  4  0  0  0  0
 12 13  4  0  0  0  0
 13 14  4  0  0  0  0
  9 14  4  0  0  0  0
 14 15  1  0  0  0  0
  8 16  1  0  0  0  0
 16 17  4  0  0  0  0
 17 18  4  0  0  0  0
 18 19  1  0  0  0  0
 19 20  2  0  0  0  0
 19 21  1  0  0  0  0
 18 22  4  0  0  0  0
 22 23  4  0  0  0  0
 23 24  4  0  0  0  0
 16 24  4  0  0  0  0
 24 25  1  0  0  0  0
  5 25  1  0  0  0  0
M  CHG  2  19   1  21  -1
M  STY  1   1 DAT
M  SAL   1  1   3
M  SDT   1 MRV_IMPLICIT_H                                        
M  SDD   1     0.5304   -0.4125    DR    ALL  0       0  
M  SED   1 IMPL_H1
M  END
> <activity>
89.9090277

> <InChiKey>
UVLBAPBHAHFJSY-UHFFFAOYSA-N

$$$$

  Mrv2220 08292413132D          

 22 23  0  0  0  0            999 V2000
    0.0000   -1.6500    0.0000 O   0  0  0  0  0  0  0  0  0  0  0  0
    0.7145   -1.2375    0.0000 C   0  0  0  0  0  0  0  0  0  0  0  0
    1.4289   -1.6500    0.0000 N   0  0  0  0  0  0  0  0  0  0  0  0
    1.4289   -2.4750    0.0000 S   0  0  0  0  0  0  0  0  0  0  0  0
    2.2539   -2.4750    0.0000 O   0  0  0  0  0  0  0  0  0  0  0  0
    0.6039   -2.4750    0.0000 O   0  0  0  0  0  0  0  0  0  0  0  0
    1.4289   -3.3000    0.0000 C   0  0  0  0  0  0  0  0  0  0  0  0
    0.7145   -3.7125    0.0000 C   0  0  0  0  0  0  0  0  0  0  0  0
    0.7145   -4.5375    0.0000 C   0  0  0  0  0  0  0  0  0  0  0  0
    1.4289   -4.9500    0.0000 C   0  0  0  0  0  0  0  0  0  0  0  0
    1.4289   -5.7750    0.0000 C   0  0  0  0  0  0  0  0  0  0  0  0
    0.7145   -6.1875    0.0000 C   0  0  0  0  0  0  0  0  0  0  0  0
    0.0000   -5.7750    0.0000 C   0  0  0  0  0  0  0  0  0  0  0  0
    0.0000   -4.9500    0.0000 C   0  0  0  0  0  0  0  0  0  0  0  0
    0.7145   -0.4125    0.0000 C   0  0  0  0  0  0  0  0  0  0  0  0
    0.0000    0.0000    0.0000 C   0  0  0  0  0  0  0  0  0  0  0  0
    0.0000    0.8250    0.0000 C   0  0  0  0  0  0  0  0  0  0  0  0
    0.7145    1.2375    0.0000 C   0  0  0  0  0  0  0  0  0  0  0  0
    0.7145    2.0625    0.0000 F   0  0  0  0  0  0  0  0  0  0  0  0
    1.4289    0.8250    0.0000 C   0  0  0  0  0  0  0  0  0  0  0  0
    1.4289   -0.0000    0.0000 C   0  0  0  0  0  0  0  0  0  0  0  0
    2.1434   -0.4125    0.0000 Cl  0  0  0  0  0  0  0  0  0  0  0  0
  1  2  2  0  0  0  0
  2  3  1  0  0  0  0
  3  4  1  0  0  0  0
  4  5  2  0  0  0  0
  4  6  2  0  0  0  0
  7  4  1  4  0  0  0
  7  8  2  0  0  0  0
  8  9  1  0  0  0  0
  9 10  4  0  0  0  0
 10 11  4  0  0  0  0
 11 12  4  0  0  0  0
 12 13  4  0  0  0  0
 13 14  4  0  0  0  0
  9 14  4  0  0  0  0
  2 15  1  0  0  0  0
 15 16  4  0  0  0  0
 16 17  4  0  0  0  0
 17 18  4  0  0  0  0
 18 19  1  0  0  0  0
 18 20  4  0  0  0  0
 20 21  4  0  0  0  0
 15 21  4  0  0  0  0
 21 22  1  0  0  0  0
M  END
> <activity>
92.73029214

> <InChiKey>
AUMLVMKWJGCERZ-UHFFFAOYSA-N

$$$$

  Mrv2220 08292413132D          

 26 29  0  0  0  0            999 V2000
    4.5466   -0.5086    0.0000 C   0  0  0  0  0  0  0  0  0  0  0  0
    4.8269    0.2673    0.0000 C   0  0  0  0  0  0  0  0  0  0  0  0
    5.3587   -0.3634    0.0000 C   0  0  0  0  0  0  0  0  0  0  0  0
    6.1708   -0.2182    0.0000 C   0  0  0  0  0  0  0  0  0  0  0  0
    6.4511    0.5577    0.0000 C   0  0  0  0  0  0  0  0  0  0  0  0
    7.2632    0.7029    0.0000 O   0  0  0  0  0  0  0  0  0  0  0  0
    5.9193    1.1884    0.0000 C   0  0  0  0  0  0  0  0  0  0  0  0
    5.1072    1.0432    0.0000 C   0  0  0  0  0  0  0  0  0  0  0  0
    4.5754    1.6739    0.0000 C   0  0  0  0  0  0  0  0  0  0  0  0
    3.7633    1.5287    0.0000 C   0  0  0  0  0  0  0  0  0  0  0  0
    3.4830    0.7528    0.0000 C   0  0  0  0  0  0  0  0  0  0  0  0
    4.0148    0.1221    0.0000 C   0  0  0  0  0  0  0  0  0  0  0  0
    3.7345   -0.6539    0.0000 C   0  0  0  0  0  0  0  0  0  0  0  0
    4.2663   -1.2846    0.0000 O   0  0  0  0  0  0  0  0  0  0  0  0
    2.9224   -0.7991    0.0000 C   0  0  0  0  0  0  0  0  0  0  0  0
    2.3905   -0.1684    0.0000 C   0  0  0  0  0  0  0  0  0  0  0  0
    2.0307   -0.9107    0.0000 C   0  0  0  0  0  0  0  0  0  0  0  0
    2.6708    0.6076    0.0000 C   0  0  0  0  0  0  0  0  0  0  0  0
    2.0195    1.1139    0.0000 C   0  0  0  0  0  0  0  0  0  0  0  0
    1.3367    0.6509    0.0000 C   0  0  0  0  0  0  0  0  0  0  0  0
    1.5660   -0.1416    0.0000 C   0  0  0  0  0  0  0  0  0  0  0  0
    0.8051   -0.4604    0.0000 O   0  0  0  0  0  0  0  0  0  0  0  0
    1.4446   -0.9576    0.0000 C   0  0  0  0  0  0  0  0  0  0  0  0
    2.0906   -1.4707    0.0000 O   0  0  0  0  0  0  0  0  0  0  0  0
    0.6772   -1.2604    0.0000 C   0  0  0  0  0  0  0  0  0  0  0  0
    0.5558   -2.0765    0.0000 O   0  0  0  0  0  0  0  0  0  0  0  0
  1  2  1  0  0  0  0
  2  3  1  0  0  0  0
  3  4  2  0  0  0  0
  4  5  1  0  0  0  0
  5  6  2  0  0  0  0
  5  7  1  0  0  0  0
  7  8  2  0  0  0  0
  2  8  1  0  0  0  0
  8  9  1  0  0  0  0
  9 10  1  0  0  0  0
 10 11  1  0  0  0  0
 11 12  1  0  0  0  0
  2 12  1  0  0  0  0
 12 13  1  0  0  0  0
 13 14  2  0  0  0  0
 13 15  1  0  0  0  0
 15 16  1  0  0  0  0
 16 17  1  0  0  0  0
 16 18  1  0  0  0  0
 11 18  1  0  0  0  0
 18 19  1  0  0  0  0
 19 20  1  0  0  0  0
 20 21  1  0  0  0  0
 16 21  1  0  0  0  0
 21 22  1  0  0  0  0
 21 23  1  0  0  0  0
 23 24  2  0  0  0  0
 23 25  1  0  0  0  0
 25 26  1  0  0  0  0
M  END
> <activity>
102.5733648

> <InChiKey>
XOFYZVNMUHMLCC-UHFFFAOYSA-N

$$$$

  Mrv2220 08292413132D          

 24 24  0  0  0  0            999 V2000
    0.7145   -2.0625    0.0000 C   0  0  0  0  0  0  0  0  0  0  0  0
    1.4289   -2.4750    0.0000 C   0  0  0  0  0  0  0  0  0  0  0  0
    1.4289   -3.3000    0.0000 C   0  0  0  0  0  0  0  0  0  0  0  0
    2.1434   -3.7125    0.0000 N   0  0  0  0  0  0  0  0  0  0  0  0
    2.8579   -3.3000    0.0000 C   0  0  0  0  0  0  0  0  0  0  0  0
    2.8579   -2.4750    0.0000 C   0  0  0  0  0  0  0  0  0  0  0  0
    3.5724   -2.0625    0.0000 C   0  0  0  0  0  0  0  0  0  0  0  0
    2.1434   -4.5375    0.0000 C   0  0  0  0  0  0  0  0  0  0  0  0
    2.8579   -4.9500    0.0000 C   0  0  0  0  0  0  0  0  0  0  0  0
    3.5724   -4.5375    0.0000 N   0  3  0  0  0  0  0  0  0  0  0  0
    4.2868   -4.9500    0.0000 O   0  0  0  0  0  0  0  0  0  0  0  0
    3.5724   -3.7125    0.0000 O   0  5  0  0  0  0  0  0  0  0  0  0
    2.8579   -5.7750    0.0000 C   0  0  0  0  0  0  0  0  0  0  0  0
    2.1434   -6.1875    0.0000 C   0  0  0  0  0  0  0  0  0  0  0  0
    2.1434   -7.0125    0.0000 C   0  0  0  0  0  0  0  0  0  0  0  0
    2.1434   -7.8375    0.0000 F   0  0  0  0  0  0  0  0  0  0  0  0
    1.3184   -7.0125    0.0000 F   0  0  0  0  0  0  0  0  0  0  0  0
    2.9684   -7.0125    0.0000 F   0  0  0  0  0  0  0  0  0  0  0  0
    1.4289   -5.7750    0.0000 C   0  0  0  0  0  0  0  0  0  0  0  0
    0.7145   -6.1875    0.0000 N   0  0  0  0  0  0  0  0  0  0  0  0
    1.4289   -4.9500    0.0000 C   0  0  0  0  0  0  0  0  0  0  0  0
    0.7145   -4.5375    0.0000 N   0  3  0  0  0  0  0  0  0  0  0  0
    0.7145   -3.7125    0.0000 O   0  0  0  0  0  0  0  0  0  0  0  0
    0.0000   -4.9500    0.0000 O   0  5  0  0  0  0  0  0  0  0  0  0
  1  2  1  0  0  0  0
  2  3  1  0  0  0  0
  3  4  1  0  0  0  0
  4  5  1  0  0  0  0
  5  6  1  0  0  0  0
  6  7  1  0  0  0  0
  4  8  1  0  0  0  0
  8  9  4  0  0  0  0
  9 10  1  0  0  0  0
 10 11  2  0  0  0  0
 10 12  1  0  0  0  0
  9 13  4  0  0  0  0
 13 14  4  0  0  0  0
 14 15  1  0  0  0  0
 15 16  1  0  0  0  0
 15 17  1  0  0  0  0
 15 18  1  0  0  0  0
 14 19  4  0  0  0  0
 19 20  1  0  0  0  0
 19 21  4  0  0  0  0
  8 21  4  0  0  0  0
 21 22  1  0  0  0  0
 22 23  2  0  0  0  0
 22 24  1  0  0  0  0
M  CHG  4  10   1  12  -1  22   1  24  -1
M  END
> <activity>
106.5983528

> <InChiKey>
RSVPPPHXAASNOL-UHFFFAOYSA-N

$$$$

  Mrv2220 08292413132D          

 14 14  0  0  0  0            999 V2000
    1.4289   -2.4750    0.0000 C   0  0  0  0  0  0  0  0  0  0  0  0
    0.7145   -2.0625    0.0000 C   0  0  0  0  0  0  0  0  0  0  0  0
    0.0000   -2.4750    0.0000 C   0  0  0  0  0  0  0  0  0  0  0  0
    0.7145   -1.2375    0.0000 N   0  0  0  0  0  0  0  0  0  0  0  0
    1.4289   -0.8250    0.0000 C   0  0  0  0  0  0  0  0  0  0  0  0
    1.4289   -0.0000    0.0000 O   0  0  0  0  0  0  0  0  0  0  0  0
    2.1434   -1.2375    0.0000 C   0  0  0  0  0  0  0  0  0  0  0  0
    2.8579   -0.8250    0.0000 Cl  0  0  0  0  0  0  0  0  0  0  0  0
    0.0000   -0.8250    0.0000 C   0  0  0  0  0  0  0  0  0  0  0  0
   -0.7145   -1.2375    0.0000 C   0  0  0  0  0  0  0  0  0  0  0  0
   -1.4289   -0.8250    0.0000 C   0  0  0  0  0  0  0  0  0  0  0  0
   -1.4289    0.0000    0.0000 C   0  0  0  0  0  0  0  0  0  0  0  0
   -0.7145    0.4125    0.0000 C   0  0  0  0  0  0  0  0  0  0  0  0
    0.0000   -0.0000    0.0000 C   0  0  0  0  0  0  0  0  0  0  0  0
  1  2  1  0  0  0  0
  2  3  1  0  0  0  0
  2  4  1  0  0  0  0
  4  5  1  0  0  0  0
  5  6  2  0  0  0  0
  5  7  1  0  0  0  0
  7  8  1  0  0  0  0
  4  9  1  0  0  0  0
  9 10  4  0  0  0  0
 10 11  4  0  0  0  0
 11 12  4  0  0  0  0
 12 13  4  0  0  0  0
 13 14  4  0  0  0  0
  9 14  4  0  0  0  0
M  END
> <activity>
13.39382036

> <InChiKey>
MFOUDYKPLGXPGO-UHFFFAOYSA-N

$$$$

  Mrv2220 08292413132D          

 27 28  0  0  0  0            999 V2000
   -1.4289   -0.8250    0.0000 C   0  0  0  0  0  0  0  0  0  0  0  0
   -0.7145   -1.2375    0.0000 C   0  0  0  0  0  0  0  0  0  0  0  0
   -0.7145   -2.0625    0.0000 C   0  0  0  0  0  0  0  0  0  0  0  0
    0.0000   -2.4750    0.0000 O   0  0  0  0  0  0  0  0  0  0  0  0
    0.0000   -3.3000    0.0000 C   0  0  0  0  0  0  0  0  0  0  0  0
    0.6674   -3.7849    0.0000 N   0  0  0  0  0  0  0  0  0  0  0  0
    0.4125   -4.5695    0.0000 N   0  0  0  0  0  0  0  0  0  0  0  0
    0.8974   -5.2370    0.0000 C   0  0  0  0  0  0  0  0  0  0  0  0
    1.7179   -5.1507    0.0000 O   0  0  0  0  0  0  0  0  0  0  0  0
    0.5619   -5.9907    0.0000 N   0  0  0  0  0  0  0  0  0  0  0  0
    1.0468   -6.6581    0.0000 S   0  0  0  0  0  0  0  0  0  0  0  0
    0.3793   -7.1430    0.0000 O   0  0  0  0  0  0  0  0  0  0  0  0
    1.7142   -6.1732    0.0000 O   0  0  0  0  0  0  0  0  0  0  0  0
    1.5317   -7.3255    0.0000 C   0  0  0  0  0  0  0  0  0  0  0  0
    2.3522   -7.2393    0.0000 C   0  0  0  0  0  0  0  0  0  0  0  0
    2.8371   -7.9067    0.0000 C   0  0  0  0  0  0  0  0  0  0  0  0
    2.5016   -8.6604    0.0000 C   0  0  0  0  0  0  0  0  0  0  0  0
    1.6811   -8.7467    0.0000 C   0  0  0  0  0  0  0  0  0  0  0  0
    1.1962   -8.0792    0.0000 C   0  0  0  0  0  0  0  0  0  0  0  0
    0.3757   -8.1654    0.0000 C   0  0  0  0  0  0  0  0  0  0  0  0
   -0.1093   -7.4980    0.0000 O   0  0  0  0  0  0  0  0  0  0  0  0
    0.0401   -8.9191    0.0000 O   0  0  0  0  0  0  0  0  0  0  0  0
    0.5250   -9.5866    0.0000 C   0  0  0  0  0  0  0  0  0  0  0  0
   -0.4125   -4.5695    0.0000 C   0  0  0  0  0  0  0  0  0  0  0  0
   -0.8974   -5.2370    0.0000 O   0  0  0  0  0  0  0  0  0  0  0  0
   -0.6674   -3.7849    0.0000 N   0  0  0  0  0  0  0  0  0  0  0  0
   -1.4521   -3.5300    0.0000 C   0  0  0  0  0  0  0  0  0  0  0  0
  1  2  1  0  0  0  0
  2  3  1  0  0  0  0
  3  4  1  0  0  0  0
  4  5  1  0  0  0  0
  5  6  4  0  0  0  0
  6  7  4  0  0  0  0
  7  8  1  0  0  0  0
  8  9  2  0  0  0  0
  8 10  1  0  0  0  0
 10 11  1  0  0  0  0
 11 12  2  0  0  0  0
 11 13  2  0  0  0  0
 11 14  1  0  0  0  0
 14 15  4  0  0  0  0
 15 16  4  0  0  0  0
 16 17  4  0  0  0  0
 17 18  4  0  0  0  0
 18 19  4  0  0  0  0
 14 19  4  0  0  0  0
 19 20  1  0  0  0  0
 20 21  2  0  0  0  0
 20 22  1  0  0  0  0
 22 23  1  0  0  0  0
  7 24  4  0  0  0  0
 24 25  2  0  0  0  0
 24 26  4  0  0  0  0
  5 26  4  0  0  0  0
 26 27  1  0  0  0  0
M  END
> <activity>
52.288918

> <InChiKey>
JTHMVYBOQLDDIY-UHFFFAOYSA-N

$$$$

  Mrv2220 08292413132D          

 12 12  0  0  0  0            999 V2000
    0.7145    2.0625    0.0000 C   0  0  0  0  0  0  0  0  0  0  0  0
    0.7145    1.2375    0.0000 C   0  0  0  0  0  0  0  0  0  0  0  0
    1.4289    0.8250    0.0000 N   0  0  0  0  0  0  0  0  0  0  0  0
    1.4289   -0.0000    0.0000 C   0  0  0  0  0  0  0  0  0  0  0  0
    0.7145   -0.4125    0.0000 C   0  0  0  0  0  0  0  0  0  0  0  0
    0.7145   -1.2375    0.0000 C   0  0  0  0  0  0  0  0  0  0  0  0
    1.4289   -1.6500    0.0000 O   0  0  0  0  0  0  0  0  0  0  0  0
    0.0000    0.0000    0.0000 C   0  0  0  0  0  0  0  0  0  0  0  0
   -0.7145   -0.4125    0.0000 C   0  0  0  0  0  0  0  0  0  0  0  0
   -1.4289    0.0000    0.0000 O   0  0  0  0  0  0  0  0  0  0  0  0
    0.0000    0.8250    0.0000 C   0  0  0  0  0  0  0  0  0  0  0  0
   -0.7145    1.2375    0.0000 O   0  0  0  0  0  0  0  0  0  0  0  0
  1  2  1  0  0  0  0
  2  3  4  0  0  0  0
  3  4  4  0  0  0  0
  4  5  4  0  0  0  0
  5  6  1  0  0  0  0
  6  7  1  0  0  0  0
  5  8  4  0  0  0  0
  8  9  1  0  0  0  0
  9 10  1  0  0  0  0
  8 11  4  0  0  0  0
  2 11  4  0  0  0  0
 11 12  1  0  0  0  0
M  END
> <activity>
-2.283661556

> <InChiKey>
LXNHXLLTXMVWPM-UHFFFAOYSA-N

$$$$

  Mrv2220 08292413132D          

 12 13  0  0  0  0            999 V2000
    5.4957    2.3479    0.0000 C   0  0  0  0  0  0  0  0  0  0  0  0
    4.7812    1.9354    0.0000 C   0  0  0  0  0  0  0  0  0  0  0  0
    4.0668    2.3479    0.0000 C   0  0  0  0  0  0  0  0  0  0  0  0
    3.3523    1.9354    0.0000 C   0  0  0  0  0  0  0  0  0  0  0  0
    3.3523    1.1104    0.0000 C   0  0  0  0  0  0  0  0  0  0  0  0
    2.6378    0.6979    0.0000 C   0  0  0  0  0  0  0  0  0  0  0  0
    1.9233    1.1104    0.0000 C   0  0  0  0  0  0  0  0  0  0  0  0
    1.9233    1.9354    0.0000 C   0  0  0  0  0  0  0  0  0  0  0  0
    2.6378    2.3479    0.0000 C   0  0  0  0  0  0  0  0  0  0  0  0
    1.1387    2.1904    0.0000 O   0  0  0  0  0  0  0  0  0  0  0  0
    0.6538    1.5229    0.0000 C   0  0  0  0  0  0  0  0  0  0  0  0
    1.1387    0.8555    0.0000 O   0  0  0  0  0  0  0  0  0  0  0  0
  1  2  2  0  0  0  0
  2  3  1  0  0  0  0
  3  4  1  0  0  0  0
  4  5  4  0  0  0  0
  5  6  4  0  0  0  0
  6  7  4  0  0  0  0
  7  8  4  0  0  0  0
  8  9  4  0  0  0  0
  4  9  4  0  0  0  0
  8 10  1  0  0  0  0
 10 11  1  0  0  0  0
 11 12  1  0  0  0  0
  7 12  1  0  0  0  0
M  END
> <activity>
26.10752688

> <InChiKey>
ZMQAAUBTXCXRIC-UHFFFAOYSA-N

$$$$

  Mrv2220 08292413132D          

 13 13  0  0  0  0            999 V2000
    1.4289    3.3000    0.0000 C   0  0  0  0  0  0  0  0  0  0  0  0
    1.4289    2.4750    0.0000 C   0  0  0  0  0  0  0  0  0  0  0  0
    0.7145    2.0625    0.0000 N   0  0  0  0  0  0  0  0  0  0  0  0
    0.7145    1.2375    0.0000 C   0  0  0  0  0  0  0  0  0  0  0  0
    1.4289    0.8250    0.0000 N   0  0  0  0  0  0  0  0  0  0  0  0
    1.4289   -0.0000    0.0000 C   0  0  0  0  0  0  0  0  0  0  0  0
    2.1434   -0.4125    0.0000 Cl  0  0  0  0  0  0  0  0  0  0  0  0
    0.7145   -0.4125    0.0000 N   0  0  0  0  0  0  0  0  0  0  0  0
    0.0000    0.0000    0.0000 C   0  0  0  0  0  0  0  0  0  0  0  0
   -0.7145   -0.4125    0.0000 N   0  0  0  0  0  0  0  0  0  0  0  0
   -1.4289    0.0000    0.0000 C   0  0  0  0  0  0  0  0  0  0  0  0
   -2.1434   -0.4125    0.0000 C   0  0  0  0  0  0  0  0  0  0  0  0
    0.0000    0.8250    0.0000 N   0  0  0  0  0  0  0  0  0  0  0  0
  1  2  1  0  0  0  0
  2  3  1  0  0  0  0
  3  4  1  0  0  0  0
  4  5  4  0  0  0  0
  5  6  4  0  0  0  0
  6  7  1  0  0  0  0
  6  8  4  0  0  0  0
  8  9  4  0  0  0  0
  9 10  1  0  0  0  0
 10 11  1  0  0  0  0
 11 12  1  0  0  0  0
  9 13  4  0  0  0  0
  4 13  4  0  0  0  0
M  END
> <activity>
0.686404478

> <InChiKey>
ODCWYMIRDDJXKW-UHFFFAOYSA-N

$$$$

  Mrv2220 08292413132D          

 14 13  0  0  0  0            999 V2000
    2.9980    2.5559    0.0000 C   0  0  0  0  0  0  0  0  0  0  0  0
    3.7125    2.1434    0.0000 C   0  0  0  0  0  0  0  0  0  0  0  0
    4.4270    2.5559    0.0000 C   0  0  0  0  0  0  0  0  0  0  0  0
    5.1414    2.1434    0.0000 C   0  0  0  0  0  0  0  0  0  0  0  0
    5.8559    2.5559    0.0000 C   0  0  0  0  0  0  0  0  0  0  0  0
    6.5704    2.1434    0.0000 C   0  0  0  0  0  0  0  0  0  0  0  0
    7.2849    2.5559    0.0000 C   0  0  0  0  0  0  0  0  0  0  0  0
    7.9993    2.1434    0.0000 C   0  0  0  0  0  0  0  0  0  0  0  0
    8.7138    2.5559    0.0000 C   0  0  0  0  0  0  0  0  0  0  0  0
    9.4283    2.1434    0.0000 O   0  0  0  0  0  0  0  0  0  0  0  0
   10.1427    2.5559    0.0000 S   0  0  0  0  0  0  0  0  0  0  0  0
   10.8572    2.9684    0.0000 O   0  0  0  0  0  0  0  0  0  0  0  0
   10.5552    1.8414    0.0000 O   0  0  0  0  0  0  0  0  0  0  0  0
    9.7302    3.2704    0.0000 O   0  0  0  0  0  0  0  0  0  0  0  0
  1  2  1  0  0  0  0
  2  3  1  0  0  0  0
  3  4  1  0  0  0  0
  4  5  1  0  0  0  0
  5  6  1  0  0  0  0
  6  7  1  0  0  0  0
  7  8  1  0  0  0  0
  8  9  1  0  0  0  0
  9 10  1  0  0  0  0
 10 11  1  0  0  0  0
 11 12  2  0  0  0  0
 11 13  2  0  0  0  0
 11 14  1  0  0  0  0
M  END
> <activity>
94.58724751

> <InChiKey>
KETHQOOVMIVLCH-UHFFFAOYSA-N

$$$$

  Mrv2220 08292413132D          

 30 30  0  0  0  0            999 V2000
   -4.0183   -1.8406    0.0000 C   0  0  0  0  0  0  0  0  0  0  0  0
   -4.0183   -2.6656    0.0000 C   0  0  0  0  0  0  0  0  0  0  0  0
   -3.3038   -3.0781    0.0000 C   0  0  0  0  0  0  0  0  0  0  0  0
   -3.3038   -3.9031    0.0000 C   0  0  0  0  0  0  0  0  0  0  0  0
   -2.5893   -4.3156    0.0000 C   0  0  0  0  0  0  0  0  0  0  0  0
   -2.5893   -5.1406    0.0000 C   0  0  0  0  0  0  0  0  0  0  0  0
   -1.8748   -5.5531    0.0000 C   0  0  0  0  0  0  0  0  0  0  0  0
   -1.8748   -6.3781    0.0000 C   0  0  0  0  0  0  0  0  0  0  0  0
   -1.1604   -6.7906    0.0000 C   0  0  0  0  0  0  0  0  0  0  0  0
   -1.1604   -7.6156    0.0000 C   0  0  0  0  0  0  0  0  0  0  0  0
   -0.4459   -8.0281    0.0000 C   0  0  0  0  0  0  0  0  0  0  0  0
    0.2686   -7.6156    0.0000 C   0  0  0  0  0  0  0  0  0  0  0  0
    0.9830   -8.0281    0.0000 C   0  0  0  0  0  0  0  0  0  0  0  0
    1.6975   -7.6156    0.0000 C   0  0  0  0  0  0  0  0  0  0  0  0
    2.4120   -8.0281    0.0000 C   0  0  0  0  0  0  0  0  0  0  0  0
    3.1264   -7.6156    0.0000 C   0  0  0  0  0  0  0  0  0  0  0  0
    3.8409   -8.0281    0.0000 C   0  0  0  0  0  0  0  0  0  0  0  0
    4.5554   -7.6156    0.0000 C   0  0  0  0  0  0  0  0  0  0  0  0
    4.5554   -6.7906    0.0000 O   0  0  0  0  0  0  0  0  0  0  0  0
    5.2699   -8.0281    0.0000 O   0  0  0  0  0  0  0  0  0  0  0  0
    5.9843   -7.6156    0.0000 C   0  0  0  0  0  0  0  0  0  0  0  0
    6.6988   -8.0281    0.0000 C   0  0  0  0  0  0  0  0  0  0  0  0
    6.6988   -8.8531    0.0000 O   0  0  0  0  0  0  0  0  0  0  0  0
    7.4133   -7.6156    0.0000 C   0  0  0  0  0  0  0  0  0  0  0  0
    7.4995   -6.7952    0.0000 O   0  0  0  0  0  0  0  0  0  0  0  0
    8.3065   -6.6236    0.0000 C   0  0  0  0  0  0  0  0  0  0  0  0
    8.7190   -7.3381    0.0000 C   0  0  0  0  0  0  0  0  0  0  0  0
    9.5395   -7.4243    0.0000 O   0  0  0  0  0  0  0  0  0  0  0  0
    8.1669   -7.9512    0.0000 C   0  0  0  0  0  0  0  0  0  0  0  0
    8.3385   -8.7582    0.0000 O   0  0  0  0  0  0  0  0  0  0  0  0
  1  2  1  0  0  0  0
  2  3  1  0  0  0  0
  3  4  1  0  0  0  0
  4  5  1  0  0  0  0
  5  6  1  0  0  0  0
  6  7  1  0  0  0  0
  7  8  1  0  0  0  0
  9  8  1  4  0  0  0
  9 10  2  0  0  0  0
 10 11  1  0  0  0  0
 11 12  1  0  0  0  0
 12 13  1  0  0  0  0
 13 14  1  0  0  0  0
 14 15  1  0  0  0  0
 15 16  1  0  0  0  0
 16 17  1  0  0  0  0
 17 18  1  0  0  0  0
 18 19  2  0  0  0  0
 18 20  1  0  0  0  0
 20 21  1  0  0  0  0
 21 22  1  0  0  0  0
 22 23  1  0  0  0  0
 22 24  1  0  0  0  0
 24 25  1  0  0  0  0
 25 26  1  0  0  0  0
 26 27  1  0  0  0  0
 27 28  1  0  0  0  0
 27 29  1  0  0  0  0
 24 29  1  0  0  0  0
 29 30  1  0  0  0  0
M  END
> <activity>
55.54733467

> <InChiKey>
NWGKJDSIEKMTRX-UHFFFAOYSA-N

$$$$

  Mrv2220 08292413132D          

 27 29  0  0  0  0            999 V2000
   -2.6698    2.7647    0.0000 C   0  0  0  0  0  0  0  0  0  0  0  0
   -2.0023    2.2798    0.0000 C   0  0  0  0  0  0  0  0  0  0  0  0
   -1.2486    2.6153    0.0000 C   0  0  0  0  0  0  0  0  0  0  0  0
   -0.5812    2.1304    0.0000 C   0  0  0  0  0  0  0  0  0  0  0  0
    0.1725    2.4660    0.0000 C   0  0  0  0  0  0  0  0  0  0  0  0
   -0.6674    1.3099    0.0000 C   0  0  0  0  0  0  0  0  0  0  0  0
    0.0000    0.8250    0.0000 C   0  0  0  0  0  0  0  0  0  0  0  0
    0.7846    1.0799    0.0000 C   0  0  0  0  0  0  0  0  0  0  0  0
    1.0396    1.8646    0.0000 O   0  0  0  0  0  0  0  0  0  0  0  0
    1.8465    2.0361    0.0000 C   0  0  0  0  0  0  0  0  0  0  0  0
    2.3986    1.4230    0.0000 O   0  0  0  0  0  0  0  0  0  0  0  0
    2.1015    2.8207    0.0000 C   0  0  0  0  0  0  0  0  0  0  0  0
    1.5494    3.4338    0.0000 C   0  0  0  0  0  0  0  0  0  0  0  0
    0.9974    4.0469    0.0000 C   0  0  0  0  0  0  0  0  0  0  0  0
    2.1625    3.9858    0.0000 C   0  0  0  0  0  0  0  0  0  0  0  0
    0.9363    2.8818    0.0000 C   0  0  0  0  0  0  0  0  0  0  0  0
    1.2695    0.4125    0.0000 C   0  0  0  0  0  0  0  0  0  0  0  0
    1.7545    1.0799    0.0000 C   0  0  0  0  0  0  0  0  0  0  0  0
    2.5391    0.8250    0.0000 C   0  0  0  0  0  0  0  0  0  0  0  0
    2.5391    0.0000    0.0000 C   0  0  0  0  0  0  0  0  0  0  0  0
    1.7545   -0.2549    0.0000 C   0  0  0  0  0  0  0  0  0  0  0  0
    0.7846   -0.2549    0.0000 O   0  0  0  0  0  0  0  0  0  0  0  0
   -0.0000    0.0000    0.0000 C   0  0  0  0  0  0  0  0  0  0  0  0
   -0.6674   -0.4849    0.0000 O   0  0  0  0  0  0  0  0  0  0  0  0
   -1.4211    0.9744    0.0000 C   0  0  0  0  0  0  0  0  0  0  0  0
   -1.5074    0.1539    0.0000 C   0  0  0  0  0  0  0  0  0  0  0  0
   -2.0886    1.4593    0.0000 C   0  0  0  0  0  0  0  0  0  0  0  0
  1  2  1  0  0  0  0
  2  3  4  0  0  0  0
  3  4  4  0  0  0  0
  4  5  1  0  0  0  0
  4  6  4  0  0  0  0
  6  7  1  0  0  0  0
  7  8  2  0  0  0  0
  8  9  1  0  0  0  0
  9 10  1  0  0  0  0
 10 11  2  0  0  0  0
 10 12  1  0  0  0  0
 12 13  1  0  0  0  0
 13 14  1  0  0  0  0
 13 15  1  0  0  0  0
 13 16  1  0  0  0  0
  8 17  1  0  0  0  0
 17 18  1  0  0  0  0
 18 19  1  0  0  0  0
 19 20  1  0  0  0  0
 20 21  1  0  0  0  0
 17 21  1  0  0  0  0
 17 22  1  0  0  0  0
 22 23  1  0  0  0  0
  7 23  1  0  0  0  0
 23 24  2  0  0  0  0
  6 25  4  0  0  0  0
 25 26  1  0  0  0  0
 25 27  4  0  0  0  0
  2 27  4  0  0  0  0
M  END
> <activity>
51.05135721

> <InChiKey>
GOLXNESZZPUPJE-UHFFFAOYSA-N

$$$$

  Mrv2220 08292413132D          

  9 10  0  0  0  0            999 V2000
    0.7145    5.4901    0.0000 C   0  0  0  0  0  0  0  0  0  0  0  0
    1.4289    5.0776    0.0000 C   0  0  0  0  0  0  0  0  0  0  0  0
    1.4289    4.2526    0.0000 C   0  0  0  0  0  0  0  0  0  0  0  0
    0.7145    3.8401    0.0000 C   0  0  0  0  0  0  0  0  0  0  0  0
    0.7145    3.0151    0.0000 C   0  0  0  0  0  0  0  0  0  0  0  0
    1.1270    2.3007    0.0000 C   0  0  0  0  0  0  0  0  0  0  0  0
    0.3020    2.3007    0.0000 O   0  0  0  0  0  0  0  0  0  0  0  0
    0.0000    4.2526    0.0000 C   0  0  0  0  0  0  0  0  0  0  0  0
    0.0000    5.0776    0.0000 C   0  0  0  0  0  0  0  0  0  0  0  0
  1  2  4  0  0  0  0
  2  3  4  0  0  0  0
  3  4  4  0  0  0  0
  4  5  1  0  0  0  0
  5  6  1  0  0  0  0
  6  7  1  0  0  0  0
  5  7  1  0  0  0  0
  4  8  4  0  0  0  0
  8  9  4  0  0  0  0
  1  9  4  0  0  0  0
M  END
> <activity>
18.24331466

> <InChiKey>
AWMVMTVKBNGEAK-UHFFFAOYSA-N

$$$$

  Mrv2220 08292413132D          

 28 30  0  0  0  0            999 V2000
    5.7158   -1.6500    0.0000 O   0  0  0  0  0  0  0  0  0  0  0  0
    6.4302   -2.0625    0.0000 C   0  0  0  0  0  0  0  0  0  0  0  0
    7.1447   -1.6500    0.0000 O   0  0  0  0  0  0  0  0  0  0  0  0
    6.4302   -2.8875    0.0000 C   0  0  0  0  0  0  0  0  0  0  0  0
    7.1447   -3.3000    0.0000 C   0  0  0  0  0  0  0  0  0  0  0  0
    7.1447   -4.1250    0.0000 C   0  0  0  0  0  0  0  0  0  0  0  0
    7.8592   -4.5375    0.0000 N   0  0  0  0  0  0  0  0  0  0  0  0
    8.5737   -4.1250    0.0000 N   0  0  0  0  0  0  0  0  0  0  0  0
    9.2881   -4.5375    0.0000 C   0  0  0  0  0  0  0  0  0  0  0  0
   10.0026   -4.1250    0.0000 C   0  0  0  0  0  0  0  0  0  0  0  0
   10.7171   -4.5375    0.0000 C   0  0  0  0  0  0  0  0  0  0  0  0
   10.7171   -5.3625    0.0000 C   0  0  0  0  0  0  0  0  0  0  0  0
   11.4315   -5.7750    0.0000 S   0  0  0  0  0  0  0  0  0  0  0  0
   11.0190   -6.4895    0.0000 O   0  0  0  0  0  0  0  0  0  0  0  0
   11.8440   -5.0605    0.0000 O   0  0  0  0  0  0  0  0  0  0  0  0
   12.1460   -6.1875    0.0000 N   0  0  0  0  0  0  0  0  0  0  0  0
   12.1460   -7.0125    0.0000 C   0  0  0  0  0  0  0  0  0  0  0  0
   12.8605   -7.4250    0.0000 C   0  0  0  0  0  0  0  0  0  0  0  0
   12.8605   -8.2500    0.0000 C   0  0  0  0  0  0  0  0  0  0  0  0
   12.1460   -8.6625    0.0000 C   0  0  0  0  0  0  0  0  0  0  0  0
   11.4315   -8.2500    0.0000 C   0  0  0  0  0  0  0  0  0  0  0  0
   11.4315   -7.4250    0.0000 N   0  0  0  0  0  0  0  0  0  0  0  0
   10.0026   -5.7750    0.0000 C   0  0  0  0  0  0  0  0  0  0  0  0
    9.2881   -5.3625    0.0000 C   0  0  0  0  0  0  0  0  0  0  0  0
    6.4302   -4.5375    0.0000 C   0  0  0  0  0  0  0  0  0  0  0  0
    5.7158   -4.1250    0.0000 C   0  0  0  0  0  0  0  0  0  0  0  0
    5.7158   -3.3000    0.0000 C   0  0  0  0  0  0  0  0  0  0  0  0
    5.0013   -2.8875    0.0000 O   0  0  0  0  0  0  0  0  0  0  0  0
  1  2  2  0  0  0  0
  2  3  1  0  0  0  0
  2  4  1  0  0  0  0
  4  5  4  0  0  0  0
  5  6  4  0  0  0  0
  7  6  1  4  0  0  0
  7  8  2  0  0  0  0
  8  9  1  0  0  0  0
  9 10  4  0  0  0  0
 10 11  4  0  0  0  0
 11 12  4  0  0  0  0
 12 13  1  0  0  0  0
 13 14  2  0  0  0  0
 13 15  2  0  0  0  0
 13 16  1  0  0  0  0
 16 17  1  0  0  0  0
 17 18  4  0  0  0  0
 18 19  4  0  0  0  0
 19 20  4  0  0  0  0
 20 21  4  0  0  0  0
 21 22  4  0  0  0  0
 17 22  4  0  0  0  0
 12 23  4  0  0  0  0
 23 24  4  0  0  0  0
  9 24  4  0  0  0  0
  6 25  4  0  0  0  0
 25 26  4  0  0  0  0
 26 27  4  0  0  0  0
  4 27  4  0  0  0  0
 27 28  1  0  0  0  0
M  END
> <activity>
109.3334172

> <InChiKey>
NCEXYHBECQHGNR-UHFFFAOYSA-N

$$$$

  Mrv2220 08292413132D          

 23 24  0  0  0  0            999 V2000
    0.7145   -0.4125    0.0000 C   0  0  0  0  0  0  0  0  0  0  0  0
    0.7145   -1.2375    0.0000 C   0  0  0  0  0  0  0  0  0  0  0  0
    1.3819   -1.7224    0.0000 N   0  0  0  0  0  0  0  0  0  0  0  0
    1.1270   -2.5070    0.0000 N   0  0  0  0  0  0  0  0  0  0  0  0
    1.6119   -3.1745    0.0000 C   0  0  0  0  0  0  0  0  0  0  0  0
    2.4324   -3.0882    0.0000 C   0  0  0  0  0  0  0  0  0  0  0  0
    2.9173   -3.7557    0.0000 C   0  0  0  0  0  0  0  0  0  0  0  0
    3.7378   -3.6695    0.0000 N   0  0  0  0  0  0  0  0  0  0  0  0
    4.2227   -4.3369    0.0000 S   0  0  0  0  0  0  0  0  0  0  0  0
    4.7076   -5.0043    0.0000 C   0  0  0  0  0  0  0  0  0  0  0  0
    4.8901   -3.8520    0.0000 O   0  0  0  0  0  0  0  0  0  0  0  0
    3.5553   -4.8218    0.0000 O   0  0  0  0  0  0  0  0  0  0  0  0
    2.5817   -4.5094    0.0000 C   0  0  0  0  0  0  0  0  0  0  0  0
    3.0667   -5.1768    0.0000 Cl  0  0  0  0  0  0  0  0  0  0  0  0
    1.7613   -4.5956    0.0000 C   0  0  0  0  0  0  0  0  0  0  0  0
    1.2763   -3.9282    0.0000 C   0  0  0  0  0  0  0  0  0  0  0  0
    0.4559   -4.0144    0.0000 Cl  0  0  0  0  0  0  0  0  0  0  0  0
    0.3020   -2.5070    0.0000 C   0  0  0  0  0  0  0  0  0  0  0  0
   -0.1830   -3.1745    0.0000 O   0  0  0  0  0  0  0  0  0  0  0  0
    0.0470   -1.7224    0.0000 N   0  0  0  0  0  0  0  0  0  0  0  0
   -0.7376   -1.4675    0.0000 C   0  0  0  0  0  0  0  0  0  0  0  0
   -1.3507   -2.0195    0.0000 F   0  0  0  0  0  0  0  0  0  0  0  0
   -0.9091   -0.6605    0.0000 F   0  0  0  0  0  0  0  0  0  0  0  0
  1  2  1  0  0  0  0
  2  3  4  0  0  0  0
  3  4  4  0  0  0  0
  4  5  1  0  0  0  0
  5  6  4  0  0  0  0
  6  7  4  0  0  0  0
  7  8  1  0  0  0  0
  8  9  1  0  0  0  0
  9 10  1  0  0  0  0
  9 11  2  0  0  0  0
  9 12  2  0  0  0  0
  7 13  4  0  0  0  0
 13 14  1  0  0  0  0
 13 15  4  0  0  0  0
 15 16  4  0  0  0  0
  5 16  4  0  0  0  0
 16 17  1  0  0  0  0
  4 18  4  0  0  0  0
 18 19  2  0  0  0  0
 18 20  4  0  0  0  0
  2 20  4  0  0  0  0
 20 21  1  0  0  0  0
 21 22  1  0  0  0  0
 21 23  1  0  0  0  0
M  END
> <activity>
79.39662771

> <InChiKey>
OORLZFUTLGXMEF-UHFFFAOYSA-N

$$$$

  Mrv2220 08292413132D          

 20 20  0  0  0  0            999 V2000
   -1.4289    4.1250    0.0000 C   0  0  0  0  0  0  0  0  0  0  0  0
   -0.7145    3.7125    0.0000 C   0  0  0  0  0  0  0  0  0  0  0  0
   -0.7145    2.8875    0.0000 O   0  0  0  0  0  0  0  0  0  0  0  0
    0.0000    2.4750    0.0000 P   0  0  0  0  0  0  0  0  0  0  0  0
   -0.4125    1.7605    0.0000 S   0  0  0  0  0  0  0  0  0  0  0  0
    0.7145    2.0625    0.0000 O   0  0  0  0  0  0  0  0  0  0  0  0
    0.7145    1.2375    0.0000 C   0  0  0  0  0  0  0  0  0  0  0  0
    1.4289    0.8250    0.0000 C   0  0  0  0  0  0  0  0  0  0  0  0
    1.4289   -0.0000    0.0000 N   0  0  0  0  0  0  0  0  0  0  0  0
    0.7145   -0.4125    0.0000 C   0  0  0  0  0  0  0  0  0  0  0  0
    0.7145   -1.2375    0.0000 C   0  0  0  0  0  0  0  0  0  0  0  0
    0.7145   -2.0625    0.0000 C   0  0  0  0  0  0  0  0  0  0  0  0
   -0.1105   -1.2375    0.0000 C   0  0  0  0  0  0  0  0  0  0  0  0
    1.5395   -1.2375    0.0000 C   0  0  0  0  0  0  0  0  0  0  0  0
    0.0000    0.0000    0.0000 N   0  0  0  0  0  0  0  0  0  0  0  0
    0.0000    0.8250    0.0000 C   0  0  0  0  0  0  0  0  0  0  0  0
    0.4125    3.1895    0.0000 O   0  0  0  0  0  0  0  0  0  0  0  0
    1.2375    3.1895    0.0000 C   0  0  0  0  0  0  0  0  0  0  0  0
    1.6500    2.4750    0.0000 C   0  0  0  0  0  0  0  0  0  0  0  0
    1.6500    3.9039    0.0000 C   0  0  0  0  0  0  0  0  0  0  0  0
  1  2  1  0  0  0  0
  2  3  1  0  0  0  0
  3  4  1  0  0  0  0
  4  5  2  0  0  0  0
  4  6  1  0  0  0  0
  6  7  1  0  0  0  0
  7  8  4  0  0  0  0
  8  9  4  0  0  0  0
  9 10  4  0  0  0  0
 10 11  1  0  0  0  0
 11 12  1  0  0  0  0
 11 13  1  0  0  0  0
 11 14  1  0  0  0  0
 10 15  4  0  0  0  0
 15 16  4  0  0  0  0
  7 16  4  0  0  0  0
  4 17  1  0  0  0  0
 17 18  1  0  0  0  0
 18 19  1  0  0  0  0
 18 20  1  0  0  0  0
M  END
> <activity>
46.68704712

> <InChiKey>
AWYOMXWDGWUJHS-UHFFFAOYSA-N

$$$$

  Mrv2220 08292413132D          

 27 28  0  0  0  0            999 V2000
    7.9697    4.9500    0.0000 C   0  0  0  0  0  0  0  0  0  0  0  0
    7.2552    4.5375    0.0000 C   0  0  0  0  0  0  0  0  0  0  0  0
    7.2552    3.7125    0.0000 C   0  0  0  0  0  0  0  0  0  0  0  0
    7.9697    3.3000    0.0000 F   0  0  0  0  0  0  0  0  0  0  0  0
    6.5408    3.3000    0.0000 C   0  0  0  0  0  0  0  0  0  0  0  0
    6.5408    2.4750    0.0000 F   0  0  0  0  0  0  0  0  0  0  0  0
    5.8263    3.7125    0.0000 C   0  0  0  0  0  0  0  0  0  0  0  0
    5.1118    3.3000    0.0000 C   0  0  0  0  0  0  0  0  0  0  0  0
    4.3974    3.7125    0.0000 O   0  0  0  0  0  0  0  0  0  0  0  0
    3.6829    3.3000    0.0000 C   0  0  0  0  0  0  0  0  0  0  0  0
    3.6829    2.4750    0.0000 O   0  0  0  0  0  0  0  0  0  0  0  0
    2.9684    3.7125    0.0000 C   0  0  0  0  0  0  0  0  0  0  0  0
    2.1434    3.7125    0.0000 C   0  0  0  0  0  0  0  0  0  0  0  0
    1.4289    3.3000    0.0000 C   0  0  0  0  0  0  0  0  0  0  0  0
    0.7145    3.7125    0.0000 C   0  0  0  0  0  0  0  0  0  0  0  0
    0.7145    4.5375    0.0000 Cl  0  0  0  0  0  0  0  0  0  0  0  0
    0.0000    3.3000    0.0000 C   0  0  0  0  0  0  0  0  0  0  0  0
   -0.7145    2.8875    0.0000 F   0  0  0  0  0  0  0  0  0  0  0  0
   -0.4125    4.0145    0.0000 F   0  0  0  0  0  0  0  0  0  0  0  0
    0.4125    2.5855    0.0000 F   0  0  0  0  0  0  0  0  0  0  0  0
    2.5559    4.4270    0.0000 C   0  0  0  0  0  0  0  0  0  0  0  0
    2.0827    5.1028    0.0000 C   0  0  0  0  0  0  0  0  0  0  0  0
    3.0291    5.1028    0.0000 C   0  0  0  0  0  0  0  0  0  0  0  0
    5.8263    4.5375    0.0000 C   0  0  0  0  0  0  0  0  0  0  0  0
    5.1118    4.9500    0.0000 F   0  0  0  0  0  0  0  0  0  0  0  0
    6.5408    4.9500    0.0000 C   0  0  0  0  0  0  0  0  0  0  0  0
    6.5408    5.7750    0.0000 F   0  0  0  0  0  0  0  0  0  0  0  0
  1  2  1  0  0  0  0
  2  3  4  0  0  0  0
  3  4  1  0  0  0  0
  3  5  4  0  0  0  0
  5  6  1  0  0  0  0
  5  7  4  0  0  0  0
  7  8  1  0  0  0  0
  8  9  1  0  0  0  0
  9 10  1  0  0  0  0
 10 11  2  0  0  0  0
 10 12  1  0  0  0  0
 12 13  1  0  0  0  0
 14 13  1  4  0  0  0
 14 15  2  0  0  0  0
 15 16  1  0  0  0  0
 15 17  1  0  0  0  0
 17 18  1  0  0  0  0
 17 19  1  0  0  0  0
 17 20  1  0  0  0  0
 13 21  1  0  0  0  0
 12 21  1  0  0  0  0
 21 22  1  0  0  0  0
 21 23  1  0  0  0  0
  7 24  4  0  0  0  0
 24 25  1  0  0  0  0
 24 26  4  0  0  0  0
  2 26  4  0  0  0  0
 26 27  1  0  0  0  0
M  END
> <activity>
23.83603647

> <InChiKey>
ZFHGXWPMULPQSE-UHFFFAOYSA-N

$$$$

  Mrv2220 08292413132D          

  5  4  0  0  0  0            999 V2000
    2.0625   -0.7145    0.0000 O   0  0  0  0  0  0  0  0  0  0  0  0
    1.2375   -0.7145    0.0000 C   0  0  0  0  0  0  0  0  0  0  0  0
    0.8250   -1.4289    0.0000 O   0  0  0  0  0  0  0  0  0  0  0  0
    0.8250    0.0000    0.0000 C   0  0  0  0  0  0  0  0  0  0  0  0
    0.0000    0.0000    0.0000 S   0  0  0  0  0  0  0  0  0  0  0  0
  1  2  2  0  0  0  0
  2  3  1  0  0  0  0
  2  4  1  0  0  0  0
  4  5  1  0  0  0  0
M  END
> <activity>
9.517613766

> <InChiKey>
CWERGRDVMFNCDR-UHFFFAOYSA-N

$$$$

  Mrv2220 08292413132D          

  4  3  0  0  0  0            999 V2000
    1.2375    0.7145    0.0000 N   0  0  0  0  0  0  0  0  0  0  0  0
    0.8250    0.0000    0.0000 C   0  0  0  0  0  0  0  0  0  0  0  0
    1.2375   -0.7145    0.0000 N   0  0  0  0  0  0  0  0  0  0  0  0
    0.0000    0.0000    0.0000 S   0  0  0  0  0  0  0  0  0  0  0  0
  1  2  1  0  0  0  0
  2  3  1  0  0  0  0
  2  4  2  0  0  0  0
M  END
> <activity>
23.12943292

> <InChiKey>
UMGDCJDMYOKAJW-UHFFFAOYSA-N

$$$$

  Mrv2220 08292413132D          

 16 15  0  0  0  0            999 V2000
    4.5375    3.5724    0.0000 C   0  0  0  0  0  0  0  0  0  0  0  0
    3.7125    3.5724    0.0000 C   0  0  0  0  0  0  0  0  0  0  0  0
    3.3000    4.2868    0.0000 C   0  0  0  0  0  0  0  0  0  0  0  0
    3.3000    2.8579    0.0000 N   0  0  0  0  0  0  0  0  0  0  0  0
    2.4750    2.8579    0.0000 C   0  0  0  0  0  0  0  0  0  0  0  0
    2.0625    3.5724    0.0000 O   0  0  0  0  0  0  0  0  0  0  0  0
    2.0625    2.1434    0.0000 S   0  0  0  0  0  0  0  0  0  0  0  0
    1.2375    2.1434    0.0000 C   0  0  0  0  0  0  0  0  0  0  0  0
    0.8250    1.4289    0.0000 C   0  0  0  0  0  0  0  0  0  0  0  0
    1.2375    0.7145    0.0000 Cl  0  0  0  0  0  0  0  0  0  0  0  0
    0.0000    1.4289    0.0000 C   0  0  0  0  0  0  0  0  0  0  0  0
   -0.4125    0.7145    0.0000 Cl  0  0  0  0  0  0  0  0  0  0  0  0
   -0.4125    2.1434    0.0000 Cl  0  0  0  0  0  0  0  0  0  0  0  0
    3.7125    2.1434    0.0000 C   0  0  0  0  0  0  0  0  0  0  0  0
    4.5375    2.1434    0.0000 C   0  0  0  0  0  0  0  0  0  0  0  0
    3.3000    1.4289    0.0000 C   0  0  0  0  0  0  0  0  0  0  0  0
  1  2  1  0  0  0  0
  2  3  1  0  0  0  0
  2  4  1  0  0  0  0
  4  5  1  0  0  0  0
  5  6  2  0  0  0  0
  5  7  1  0  0  0  0
  7  8  1  0  0  0  0
  8  9  1  0  0  0  0
  9 10  1  0  0  0  0
  9 11  2  0  0  0  0
 11 12  1  0  0  0  0
 11 13  1  0  0  0  0
  4 14  1  0  0  0  0
 14 15  1  0  0  0  0
 14 16  1  0  0  0  0
M  END
> <activity>
46.64050726

> <InChiKey>
MWBPRDONLNQCFV-UHFFFAOYSA-N

$$$$

  Mrv2220 08292413132D          

 21 21  0  0  0  0            999 V2000
    2.1434   -6.1875    0.0000 C   0  0  0  0  0  0  0  0  0  0  0  0
    2.8579   -6.6000    0.0000 C   0  0  0  0  0  0  0  0  0  0  0  0
    3.5724   -6.1875    0.0000 C   0  0  0  0  0  0  0  0  0  0  0  0
    4.2868   -6.6000    0.0000 C   0  0  0  0  0  0  0  0  0  0  0  0
    5.0013   -6.1875    0.0000 O   0  0  0  0  0  0  0  0  0  0  0  0
    5.7158   -6.6000    0.0000 C   0  0  0  0  0  0  0  0  0  0  0  0
    6.4302   -6.1875    0.0000 C   0  0  0  0  0  0  0  0  0  0  0  0
    7.1447   -6.6000    0.0000 O   0  0  0  0  0  0  0  0  0  0  0  0
    7.8592   -6.1875    0.0000 C   0  0  0  0  0  0  0  0  0  0  0  0
    7.8592   -5.3625    0.0000 O   0  0  0  0  0  0  0  0  0  0  0  0
    8.5737   -6.6000    0.0000 C   0  0  0  0  0  0  0  0  0  0  0  0
    9.2881   -6.1875    0.0000 O   0  0  0  0  0  0  0  0  0  0  0  0
   10.0026   -6.6000    0.0000 C   0  0  0  0  0  0  0  0  0  0  0  0
   10.7171   -6.1875    0.0000 N   0  0  0  0  0  0  0  0  0  0  0  0
   11.4315   -6.6000    0.0000 C   0  0  0  0  0  0  0  0  0  0  0  0
   12.1460   -6.1875    0.0000 Cl  0  0  0  0  0  0  0  0  0  0  0  0
   11.4315   -7.4250    0.0000 C   0  0  0  0  0  0  0  0  0  0  0  0
   12.1460   -7.8375    0.0000 Cl  0  0  0  0  0  0  0  0  0  0  0  0
   10.7171   -7.8375    0.0000 C   0  0  0  0  0  0  0  0  0  0  0  0
   10.0026   -7.4250    0.0000 C   0  0  0  0  0  0  0  0  0  0  0  0
    9.2881   -7.8375    0.0000 Cl  0  0  0  0  0  0  0  0  0  0  0  0
  1  2  1  0  0  0  0
  2  3  1  0  0  0  0
  3  4  1  0  0  0  0
  4  5  1  0  0  0  0
  5  6  1  0  0  0  0
  6  7  1  0  0  0  0
  7  8  1  0  0  0  0
  8  9  1  0  0  0  0
  9 10  2  0  0  0  0
  9 11  1  0  0  0  0
 11 12  1  0  0  0  0
 12 13  1  0  0  0  0
 13 14  4  0  0  0  0
 14 15  4  0  0  0  0
 15 16  1  0  0  0  0
 15 17  4  0  0  0  0
 17 18  1  0  0  0  0
 17 19  4  0  0  0  0
 19 20  4  0  0  0  0
 13 20  4  0  0  0  0
 20 21  1  0  0  0  0
M  END
> <activity>
51.77982751

> <InChiKey>
IVDRCZNHVGQBHZ-UHFFFAOYSA-N

$$$$

  Mrv2220 08292413132D          

 11 10  0  0  0  0            999 V2000
    2.9684    1.8414    0.0000 C   0  0  0  0  0  0  0  0  0  0  0  0
    2.2539    1.4289    0.0000 C   0  0  0  0  0  0  0  0  0  0  0  0
    1.5395    1.8414    0.0000 O   0  0  0  0  0  0  0  0  0  0  0  0
    0.8250    1.4289    0.0000 Si  0  0  0  0  0  0  0  0  0  0  0  0
    0.4125    2.1434    0.0000 C   0  0  0  0  0  0  0  0  0  0  0  0
    0.1105    1.0164    0.0000 O   0  0  0  0  0  0  0  0  0  0  0  0
   -0.6039    1.4289    0.0000 C   0  0  0  0  0  0  0  0  0  0  0  0
   -1.3184    1.0164    0.0000 C   0  0  0  0  0  0  0  0  0  0  0  0
    1.2375    0.7145    0.0000 O   0  0  0  0  0  0  0  0  0  0  0  0
    0.8250    0.0000    0.0000 C   0  0  0  0  0  0  0  0  0  0  0  0
    0.0000    0.0000    0.0000 C   0  0  0  0  0  0  0  0  0  0  0  0
  1  2  1  0  0  0  0
  2  3  1  0  0  0  0
  3  4  1  0  0  0  0
  4  5  1  0  0  0  0
  4  6  1  0  0  0  0
  6  7  1  0  0  0  0
  7  8  1  0  0  0  0
  4  9  1  0  0  0  0
  9 10  1  0  0  0  0
 10 11  1  0  0  0  0
M  END
> <activity>
25.7819104

> <InChiKey>
CPUDPFPXCZDNGI-UHFFFAOYSA-N

$$$$

  Mrv2220 08292413132D          

 12 11  0  0  0  0            999 V2000
    3.5211    2.8579    0.0000 C   0  0  0  0  0  0  0  0  0  0  0  0
    4.2355    3.2704    0.0000 O   0  0  0  0  0  0  0  0  0  0  0  0
    4.9500    2.8579    0.0000 C   0  0  0  0  0  0  0  0  0  0  0  0
    5.6645    3.2704    0.0000 C   0  0  0  0  0  0  0  0  0  0  0  0
    6.3789    2.8579    0.0000 O   0  0  0  0  0  0  0  0  0  0  0  0
    7.0934    3.2704    0.0000 C   0  0  0  0  0  0  0  0  0  0  0  0
    7.8079    2.8579    0.0000 C   0  0  0  0  0  0  0  0  0  0  0  0
    8.5224    3.2704    0.0000 O   0  0  0  0  0  0  0  0  0  0  0  0
    9.2368    2.8579    0.0000 C   0  0  0  0  0  0  0  0  0  0  0  0
    9.9513    3.2704    0.0000 C   0  0  0  0  0  0  0  0  0  0  0  0
   10.6658    2.8579    0.0000 O   0  0  0  0  0  0  0  0  0  0  0  0
   11.3802    3.2704    0.0000 C   0  0  0  0  0  0  0  0  0  0  0  0
  1  2  1  0  0  0  0
  2  3  1  0  0  0  0
  3  4  1  0  0  0  0
  4  5  1  0  0  0  0
  5  6  1  0  0  0  0
  6  7  1  0  0  0  0
  7  8  1  0  0  0  0
  8  9  1  0  0  0  0
  9 10  1  0  0  0  0
 10 11  1  0  0  0  0
 11 12  1  0  0  0  0
M  END
> <activity>
1.544071021

> <InChiKey>
YFNKIDBQEZZDLK-UHFFFAOYSA-N

$$$$

  Mrv2220 08292413132D          

 14 15  0  0  0  0            999 V2000
    4.0668    3.1729    0.0000 O   0  0  0  0  0  0  0  0  0  0  0  0
    4.0668    2.3479    0.0000 C   0  0  0  0  0  0  0  0  0  0  0  0
    4.7812    1.9354    0.0000 O   0  0  0  0  0  0  0  0  0  0  0  0
    3.3523    1.9354    0.0000 C   0  0  0  0  0  0  0  0  0  0  0  0
    3.3523    1.1104    0.0000 C   0  0  0  0  0  0  0  0  0  0  0  0
    2.6378    0.6979    0.0000 C   0  0  0  0  0  0  0  0  0  0  0  0
    1.9233    1.1104    0.0000 C   0  0  0  0  0  0  0  0  0  0  0  0
    1.9233    1.9354    0.0000 C   0  0  0  0  0  0  0  0  0  0  0  0
    2.6378    2.3479    0.0000 C   0  0  0  0  0  0  0  0  0  0  0  0
    1.1387    2.1904    0.0000 C   0  0  0  0  0  0  0  0  0  0  0  0
    0.8838    2.9750    0.0000 O   0  0  0  0  0  0  0  0  0  0  0  0
    0.6538    1.5229    0.0000 O   0  0  0  0  0  0  0  0  0  0  0  0
    1.1387    0.8555    0.0000 C   0  0  0  0  0  0  0  0  0  0  0  0
    0.8838    0.0709    0.0000 O   0  0  0  0  0  0  0  0  0  0  0  0
  1  2  2  0  0  0  0
  2  3  1  0  0  0  0
  2  4  1  0  0  0  0
  4  5  4  0  0  0  0
  5  6  4  0  0  0  0
  6  7  4  0  0  0  0
  7  8  4  0  0  0  0
  8  9  4  0  0  0  0
  4  9  4  0  0  0  0
  8 10  1  0  0  0  0
 10 11  2  0  0  0  0
 10 12  1  0  0  0  0
 12 13  1  0  0  0  0
  7 13  1  0  0  0  0
 13 14  2  0  0  0  0
M  END
> <activity>
5.072413793

> <InChiKey>
SRPWOOOHEPICQU-UHFFFAOYSA-N

$$$$

  Mrv2220 08292413132D          

 39 39  0  0  0  0            999 V2000
    3.5724   -5.3625    0.0000 C   0  0  0  0  0  0  0  0  0  0  0  0
    2.8579   -4.9500    0.0000 C   0  0  0  0  0  0  0  0  0  0  0  0
    2.8579   -4.1250    0.0000 C   0  0  0  0  0  0  0  0  0  0  0  0
    2.1434   -3.7125    0.0000 C   0  0  0  0  0  0  0  0  0  0  0  0
    2.1434   -2.8875    0.0000 C   0  0  0  0  0  0  0  0  0  0  0  0
    2.8579   -2.4750    0.0000 C   0  0  0  0  0  0  0  0  0  0  0  0
    2.8579   -1.6500    0.0000 C   0  0  0  0  0  0  0  0  0  0  0  0
    1.4289   -2.4750    0.0000 C   0  0  0  0  0  0  0  0  0  0  0  0
    1.4289   -1.6500    0.0000 O   0  0  0  0  0  0  0  0  0  0  0  0
    0.7145   -1.2375    0.0000 C   0  0  0  0  0  0  0  0  0  0  0  0
    0.0000   -1.6500    0.0000 O   0  0  0  0  0  0  0  0  0  0  0  0
    0.7145   -0.4125    0.0000 C   0  0  0  0  0  0  0  0  0  0  0  0
   -0.0000    0.0000    0.0000 C   0  0  0  0  0  0  0  0  0  0  0  0
   -0.0000    0.8250    0.0000 C   0  0  0  0  0  0  0  0  0  0  0  0
    0.7145    1.2375    0.0000 C   0  0  0  0  0  0  0  0  0  0  0  0
    0.7145    2.0625    0.0000 C   0  0  0  0  0  0  0  0  0  0  0  0
    1.4289    2.4750    0.0000 O   0  0  0  0  0  0  0  0  0  0  0  0
    0.0000    2.4750    0.0000 O   0  0  0  0  0  0  0  0  0  0  0  0
    0.0000    3.3000    0.0000 C   0  0  0  0  0  0  0  0  0  0  0  0
   -0.7145    3.7125    0.0000 C   0  0  0  0  0  0  0  0  0  0  0  0
   -1.4289    3.3000    0.0000 C   0  0  0  0  0  0  0  0  0  0  0  0
   -2.1434    3.7125    0.0000 C   0  0  0  0  0  0  0  0  0  0  0  0
   -0.7145    4.5375    0.0000 C   0  0  0  0  0  0  0  0  0  0  0  0
   -1.4289    4.9500    0.0000 C   0  0  0  0  0  0  0  0  0  0  0  0
   -1.4289    5.7750    0.0000 C   0  0  0  0  0  0  0  0  0  0  0  0
   -2.1434    6.1875    0.0000 C   0  0  0  0  0  0  0  0  0  0  0  0
    1.4289    0.8250    0.0000 C   0  0  0  0  0  0  0  0  0  0  0  0
    2.1434    1.2375    0.0000 C   0  0  0  0  0  0  0  0  0  0  0  0
    2.1434    2.0625    0.0000 O   0  0  0  0  0  0  0  0  0  0  0  0
    2.8579    0.8250    0.0000 O   0  0  0  0  0  0  0  0  0  0  0  0
    3.5724    1.2375    0.0000 C   0  0  0  0  0  0  0  0  0  0  0  0
    4.2868    0.8250    0.0000 C   0  0  0  0  0  0  0  0  0  0  0  0
    4.2868    0.0000    0.0000 C   0  0  0  0  0  0  0  0  0  0  0  0
    5.0013   -0.4125    0.0000 C   0  0  0  0  0  0  0  0  0  0  0  0
    5.0013    1.2375    0.0000 C   0  0  0  0  0  0  0  0  0  0  0  0
    5.7158    0.8250    0.0000 C   0  0  0  0  0  0  0  0  0  0  0  0
    6.4302    1.2375    0.0000 C   0  0  0  0  0  0  0  0  0  0  0  0
    7.1447    0.8250    0.0000 C   0  0  0  0  0  0  0  0  0  0  0  0
    1.4289    0.0000    0.0000 C   0  0  0  0  0  0  0  0  0  0  0  0
  1  2  1  0  0  0  0
  2  3  1  0  0  0  0
  3  4  1  0  0  0  0
  4  5  1  0  0  0  0
  5  6  1  0  0  0  0
  6  7  1  0  0  0  0
  5  8  1  0  0  0  0
  8  9  1  0  0  0  0
  9 10  1  0  0  0  0
 10 11  2  0  0  0  0
 10 12  1  0  0  0  0
 12 13  4  0  0  0  0
 13 14  4  0  0  0  0
 14 15  4  0  0  0  0
 15 16  1  0  0  0  0
 16 17  2  0  0  0  0
 16 18  1  0  0  0  0
 18 19  1  0  0  0  0
 19 20  1  0  0  0  0
 20 21  1  0  0  0  0
 21 22  1  0  0  0  0
 20 23  1  0  0  0  0
 23 24  1  0  0  0  0
 24 25  1  0  0  0  0
 25 26  1  0  0  0  0
 15 27  4  0  0  0  0
 27 28  1  0  0  0  0
 28 29  2  0  0  0  0
 28 30  1  0  0  0  0
 30 31  1  0  0  0  0
 31 32  1  0  0  0  0
 32 33  1  0  0  0  0
 33 34  1  0  0  0  0
 32 35  1  0  0  0  0
 35 36  1  0  0  0  0
 36 37  1  0  0  0  0
 37 38  1  0  0  0  0
 27 39  4  0  0  0  0
 12 39  4  0  0  0  0
M  END
> <activity>
34.43591963

> <InChiKey>
KRADHMIOFJQKEZ-UHFFFAOYSA-N

$$$$

  Mrv2220 08292413132D          

 10  9  0  0  0  0            999 V2000
    1.7605    1.8414    0.0000 C   0  0  0  0  0  0  0  0  0  0  0  0
    2.4750    1.4289    0.0000 C   0  0  0  0  0  0  0  0  0  0  0  0
    3.1895    1.8414    0.0000 C   0  0  0  0  0  0  0  0  0  0  0  0
    3.9039    1.4289    0.0000 C   0  0  0  0  0  0  0  0  0  0  0  0
    4.6184    1.8414    0.0000 C   0  0  0  0  0  0  0  0  0  0  0  0
    5.3329    1.4289    0.0000 C   0  0  0  0  0  0  0  0  0  0  0  0
    6.0474    1.8414    0.0000 C   0  0  0  0  0  0  0  0  0  0  0  0
    3.9039    0.6039    0.0000 C   0  0  0  0  0  0  0  0  0  0  0  0
    4.6184    0.1914    0.0000 O   0  0  0  0  0  0  0  0  0  0  0  0
    3.1895    0.1914    0.0000 O   0  0  0  0  0  0  0  0  0  0  0  0
  1  2  1  0  0  0  0
  2  3  1  0  0  0  0
  3  4  1  0  0  0  0
  4  5  1  0  0  0  0
  5  6  1  0  0  0  0
  6  7  1  0  0  0  0
  4  8  1  0  0  0  0
  8  9  2  0  0  0  0
  8 10  1  0  0  0  0
M  END
> <activity>
5.521064942

> <InChiKey>
NIJJYAXOARWZEE-UHFFFAOYSA-N

$$$$

  Mrv2220 08292413132D          

 13 12  0  0  0  0            999 V2000
    2.9024    0.8704    0.0000 C   0  0  0  0  0  0  0  0  0  0  0  0
    3.7125    0.7145    0.0000 C   0  0  0  0  0  0  0  0  0  0  0  0
    4.2526    1.3381    0.0000 C   0  0  0  0  0  0  0  0  0  0  0  0
    5.0627    1.1822    0.0000 S   0  0  0  0  0  0  0  0  0  0  0  0
    5.6028    1.8058    0.0000 C   0  0  0  0  0  0  0  0  0  0  0  0
    5.3328    2.5854    0.0000 O   0  0  0  0  0  0  0  0  0  0  0  0
    6.4129    1.6499    0.0000 N   0  0  0  0  0  0  0  0  0  0  0  0
    6.9530    2.2736    0.0000 C   0  0  0  0  0  0  0  0  0  0  0  0
    7.7632    2.1177    0.0000 C   0  0  0  0  0  0  0  0  0  0  0  0
    8.3033    2.7413    0.0000 C   0  0  0  0  0  0  0  0  0  0  0  0
    6.6830    0.8704    0.0000 C   0  0  0  0  0  0  0  0  0  0  0  0
    7.4931    0.7145    0.0000 C   0  0  0  0  0  0  0  0  0  0  0  0
    7.7632   -0.0651    0.0000 C   0  0  0  0  0  0  0  0  0  0  0  0
  1  2  1  0  0  0  0
  2  3  1  0  0  0  0
  3  4  1  0  0  0  0
  4  5  1  0  0  0  0
  5  6  2  0  0  0  0
  5  7  1  0  0  0  0
  7  8  1  0  0  0  0
  8  9  1  0  0  0  0
  9 10  1  0  0  0  0
  7 11  1  0  0  0  0
 11 12  1  0  0  0  0
 12 13  1  0  0  0  0
M  END
> <activity>
10.38817246

> <InChiKey>
OKUGPJPKMAEJOE-UHFFFAOYSA-N

$$$$

  Mrv2220 08292413132D          

 45 50  0  0  0  0            999 V2000
    5.4691    6.2929    0.0000 C   0  0  0  0  0  0  0  0  0  0  0  0
    6.1897    5.8912    0.0000 C   0  0  0  0  0  0  0  0  0  0  0  0
    6.9383    6.2380    0.0000 O   0  0  0  0  0  0  0  0  0  0  0  0
    7.4994    5.6332    0.0000 C   0  0  0  0  0  0  0  0  0  0  0  0
    7.0976    4.9126    0.0000 C   0  0  0  0  0  0  0  0  0  0  0  0
    6.2882    5.0721    0.0000 C   0  0  0  0  0  0  0  0  0  0  0  0
    5.6834    4.5109    0.0000 C   0  0  0  0  0  0  0  0  0  0  0  0
    4.8951    4.7541    0.0000 O   0  0  0  0  0  0  0  0  0  0  0  0
    5.8670    3.7066    0.0000 N   0  0  0  0  0  0  0  0  0  0  0  0
    5.2622    3.1455    0.0000 C   0  0  0  0  0  0  0  0  0  0  0  0
    5.4458    2.3412    0.0000 C   0  0  0  0  0  0  0  0  0  0  0  0
    4.8410    1.7800    0.0000 C   0  0  0  0  0  0  0  0  0  0  0  0
    4.0527    2.0232    0.0000 C   0  0  0  0  0  0  0  0  0  0  0  0
    3.4479    1.4620    0.0000 C   0  0  0  0  0  0  0  0  0  0  0  0
    2.6596    1.7052    0.0000 O   0  0  0  0  0  0  0  0  0  0  0  0
    3.6315    0.6577    0.0000 N   0  0  0  0  0  0  0  0  0  0  0  0
    4.4358    0.4742    0.0000 C   0  0  0  0  0  0  0  0  0  0  0  0
    4.7938   -0.2691    0.0000 C   0  0  0  0  0  0  0  0  0  0  0  0
    4.4358   -1.0124    0.0000 C   0  0  0  0  0  0  0  0  0  0  0  0
    5.2401   -1.1960    0.0000 F   0  0  0  0  0  0  0  0  0  0  0  0
    4.4358   -1.8374    0.0000 F   0  0  0  0  0  0  0  0  0  0  0  0
    3.6315   -1.1960    0.0000 C   0  0  0  0  0  0  0  0  0  0  0  0
    3.4479   -2.0003    0.0000 C   0  0  0  0  0  0  0  0  0  0  0  0
    4.0527   -2.5615    0.0000 C   0  0  0  0  0  0  0  0  0  0  0  0
    4.8410   -2.3183    0.0000 O   0  0  0  0  0  0  0  0  0  0  0  0
    3.8691   -3.3658    0.0000 N   0  0  0  0  0  0  0  0  0  0  0  0
    4.4739   -3.9269    0.0000 C   0  0  0  0  0  0  0  0  0  0  0  0
    4.2903   -4.7313    0.0000 C   0  0  0  0  0  0  0  0  0  0  0  0
    3.5020   -4.9744    0.0000 C   0  0  0  0  0  0  0  0  0  0  0  0
    3.3184   -5.7787    0.0000 N   0  0  0  0  0  0  0  0  0  0  0  0
    3.9231   -6.3399    0.0000 C   0  0  0  0  0  0  0  0  0  0  0  0
    3.7396   -7.1442    0.0000 C   0  0  0  0  0  0  0  0  0  0  0  0
    2.9512   -7.3874    0.0000 C   0  0  0  0  0  0  0  0  0  0  0  0
    2.3464   -6.8262    0.0000 C   0  0  0  0  0  0  0  0  0  0  0  0
    2.5300   -6.0219    0.0000 C   0  0  0  0  0  0  0  0  0  0  0  0
    2.8972   -4.4133    0.0000 C   0  0  0  0  0  0  0  0  0  0  0  0
    3.0808   -3.6090    0.0000 C   0  0  0  0  0  0  0  0  0  0  0  0
    2.9865   -0.6816    0.0000 C   0  0  0  0  0  0  0  0  0  0  0  0
    2.2720   -1.0941    0.0000 C   0  0  0  0  0  0  0  0  0  0  0  0
    1.5575   -0.6816    0.0000 C   0  0  0  0  0  0  0  0  0  0  0  0
    1.5575    0.1434    0.0000 C   0  0  0  0  0  0  0  0  0  0  0  0
    2.2720    0.5559    0.0000 C   0  0  0  0  0  0  0  0  0  0  0  0
    2.9865    0.1434    0.0000 C   0  0  0  0  0  0  0  0  0  0  0  0
    3.8691    2.8275    0.0000 C   0  0  0  0  0  0  0  0  0  0  0  0
    4.4739    3.3886    0.0000 C   0  0  0  0  0  0  0  0  0  0  0  0
  1  2  1  0  0  0  0
  2  3  4  0  0  0  0
  3  4  4  0  0  0  0
  4  5  4  0  0  0  0
  5  6  4  0  0  0  0
  2  6  4  0  0  0  0
  6  7  1  0  0  0  0
  7  8  2  0  0  0  0
  7  9  1  0  0  0  0
  9 10  1  0  0  0  0
 10 11  4  0  0  0  0
 11 12  4  0  0  0  0
 12 13  4  0  0  0  0
 13 14  1  0  0  0  0
 14 15  2  0  0  0  0
 14 16  1  0  0  0  0
 16 17  1  0  0  0  0
 17 18  1  0  0  0  0
 18 19  1  0  0  0  0
 19 20  1  0  0  0  0
 19 21  1  0  0  0  0
 19 22  1  0  0  0  0
 22 23  2  0  0  0  0
 23 24  1  4  0  0  0
 24 25  2  0  0  0  0
 24 26  1  0  0  0  0
 26 27  1  0  0  0  0
 27 28  1  0  0  0  0
 28 29  1  0  0  0  0
 29 30  1  0  0  0  0
 30 31  1  0  0  0  0
 31 32  1  0  0  0  0
 32 33  1  0  0  0  0
 33 34  1  0  0  0  0
 34 35  1  0  0  0  0
 30 35  1  0  0  0  0
 29 36  1  0  0  0  0
 36 37  1  0  0  0  0
 26 37  1  0  0  0  0
 22 38  1  0  0  0  0
 38 39  4  0  0  0  0
 39 40  4  0  0  0  0
 40 41  4  0  0  0  0
 41 42  4  0  0  0  0
 42 43  4  0  0  0  0
 38 43  4  0  0  0  0
 16 43  1  0  0  0  0
 13 44  4  0  0  0  0
 44 45  4  0  0  0  0
 10 45  4  0  0  0  0
M  END
> <activity>
-3.819957328

> <InChiKey>
VDUUABBYYOPFAW-UHFFFAOYSA-N

$$$$
